data/inputs/nesta_case1397sp_eir.m
%%%%%%%%%%%%%%%%%%%%%%%%%%%%%%%%%%%%%%%%%%%%%%%%%%%%%%%%%%%%%%%%%%%%%%%%%%%
%%%%                                                                  %%%%%
%%%%      NICTA Energy System Test Case Archive (NESTA) - v0.7.0      %%%%%
%%%%              Optimal Power Flow - Typical Operation              %%%%%
%%%%                         05 - June - 2017                         %%%%%
%%%%                                                                  %%%%%
%%%%%%%%%%%%%%%%%%%%%%%%%%%%%%%%%%%%%%%%%%%%%%%%%%%%%%%%%%%%%%%%%%%%%%%%%%%
%
%  EIRGrid - Summer Peak 2013
%
%  Based on data from:
%    "Ten Year Transmission Forecast Statement 2013"
%    http://www.eirgrid.com/transmission/transmissionforecaststatement/
%    Accessed: 25/8/2014
%  
%  WARNING: This is a preliminary translation from a PSS/E-30 file.
%    The network produces AC Power Flow solutions, but has not been 
%    validated to PSS/E.  See the end of this file for detailed 
%    translation notes.
%
function mpc = nesta_case1397sp_eir
mpc.version = '2';
mpc.baseMVA = 100.0;

%% bus data
%	bus_i	type	Pd	Qd	Gs	Bs	area	Vm	Va	baseKV	zone	Vmax	Vmin
mpc.bus = [
	10	 1	 42.9	 29.49	 0.0	 0.0	 2	    0.97367	   -8.75751	 38.0	 1	    1.15000	    0.85000;
	11	 1	 28.75	 20.42	 0.0	 0.0	 2	    0.98991	   -7.53427	 38.0	 1	    1.15000	    0.85000;
	12	 1	 4.87	 1.6	 0.0	 0.0	 1	    0.98501	   -9.18945	 38.0	 1	    1.15000	    0.85000;
	13	 1	 26.22	 8.59	 0.0	 0.0	 1	    0.98776	  -11.09441	 38.0	 1	    1.15000	    0.85000;
	14	 1	 40.5	 13.32	 0.0	 0.0	 2	    0.97718	  -12.00022	 38.0	 1	    1.15000	    0.85000;
	15	 1	 42.52	 14.0	 0.0	 0.0	 2	    0.99182	  -11.59815	 38.0	 1	    1.15000	    0.85000;
	1021	 1	 0.0	 0.0	 0.0	 0.0	 4	    0.95311	  -12.69225	 110.0	 1	    1.15000	    0.85000;
	1041	 1	 1.28	 0.06	 0.0	 0.0	 3	    0.98102	  -12.71487	 110.0	 1	    1.15000	    0.85000;
	1042	 1	 0.0	 0.0	 0.0	 0.0	 3	    0.98649	  -11.18133	 220.0	 1	    1.15000	    0.85000;
	1052	 1	 0.0	 0.0	 0.0	 0.0	 3	    0.98568	  -11.48907	 220.0	 1	    1.15000	    0.85000;
	1061	 1	 0.0	 0.0	 0.0	 0.0	 9	    0.93856	   -9.10368	 110.0	 1	    1.15000	    0.85000;
	1062	 1	 0.0	 0.0	 0.0	 0.0	 3	    0.98649	  -11.18133	 220.0	 1	    1.15000	    0.85000;
	1071	 1	 0.0	 0.0	 0.0	 0.0	 4	    0.94367	  -12.37271	 110.0	 1	    1.15000	    0.85000;
	1072	 1	 0.0	 0.0	 0.0	 0.0	 3	    0.98641	  -11.19483	 220.0	 1	    1.15000	    0.85000;
	1081	 1	 0.0	 0.0	 0.0	 0.0	 7	    0.95791	  -12.21737	 110.0	 1	    1.15000	    0.85000;
	1101	 1	 16.62	 4.98	 0.0	 0.0	 5	    0.95105	  -18.05137	 110.0	 1	    1.15000	    0.85000;
	1121	 1	 0.0	 0.0	 0.0	 0.0	 6	    0.99224	  -10.27753	 110.0	 1	    1.15000	    0.85000;
	1122	 1	 0.0	 0.0	 0.0	 0.0	 6	    0.99056	   -9.97194	 220.0	 1	    1.15000	    0.85000;
	1141	 1	 0.0	 0.0	 0.0	 0.0	 9	    0.93368	  -12.99943	 110.0	 1	    1.15000	    0.85000;
	1161	 1	 0.0	 0.0	 0.0	 0.0	 7	    0.98366	   -6.33512	 110.0	 1	    1.15000	    0.85000;
	1181	 1	 0.0	 0.0	 0.0	 0.0	 10	    0.96811	   -9.91806	 110.0	 1	    1.15000	    0.85000;
	1201	 1	 0.0	 0.0	 0.0	 0.0	 1	    0.99536	   -5.22250	 110.0	 1	    1.15000	    0.85000;
	1221	 1	 0.0	 0.0	 0.0	 0.0	 8	    0.96144	  -12.68312	 110.0	 1	    1.15000	    0.85000;
	1231	 1	 0.0	 0.0	 0.0	 0.0	 6	    0.99629	  -12.51753	 110.0	 1	    1.15000	    0.85000;
	1251	 1	 0.0	 0.0	 0.0	 0.0	 4	    0.94845	  -11.31808	 110.0	 1	    1.15000	    0.85000;
	1271	 1	 0.0	 0.0	 0.0	 0.0	 10	    0.98297	   -7.70501	 110.0	 1	    1.15000	    0.85000;
	1281	 1	 0.0	 0.0	 0.0	 0.0	 3	    0.97604	  -12.17834	 110.0	 1	    1.15000	    0.85000;
	1301	 1	 0.0	 0.0	 0.0	 0.0	 6	    0.99104	   -9.93452	 110.0	 1	    1.15000	    0.85000;
	1321	 1	 0.0	 0.0	 0.0	 0.0	 8	    0.97834	   -9.86723	 110.0	 1	    1.15000	    0.85000;
	1341	 1	 0.0	 0.0	 0.0	 0.0	 9	    0.91884	   -9.85852	 110.0	 1	    1.15000	    0.85000;
	1351	 1	 0.0	 0.0	 0.0	 0.0	 8	    0.98148	  -10.39550	 110.0	 1	    1.15000	    0.85000;
	1361	 1	 0.0	 0.0	 0.0	 0.0	 5	    0.95168	  -17.43627	 110.0	 1	    1.15000	    0.85000;
	1381	 1	 0.0	 0.0	 0.0	 0.0	 3	    0.97732	  -13.23642	 110.0	 1	    1.15000	    0.85000;
	1391	 1	 0.0	 0.0	 0.0	 0.0	 3	    0.98436	  -13.34942	 110.0	 1	    1.15000	    0.85000;
	1401	 1	 0.0	 0.0	 0.0	 0.0	 9	    0.90669	  -14.59929	 110.0	 1	    1.15000	    0.85000;
	1421	 1	 0.0	 0.0	 0.0	 0.0	 1	    0.99185	   -8.98368	 110.0	 1	    1.15000	    0.85000;
	1441	 1	 0.0	 0.0	 0.0	 0.0	 3	    0.97132	  -14.04944	 110.0	 1	    1.15000	    0.85000;
	1451	 1	 0.0	 0.0	 0.0	 0.0	 1	    0.98949	   -6.72846	 110.0	 1	    1.15000	    0.85000;
	1461	 1	 0.0	 0.0	 0.0	 0.0	 5	    0.96337	  -15.19773	 110.0	 1	    1.15000	    0.85000;
	1481	 1	 0.0	 0.0	 0.0	 0.0	 5	    0.95765	  -15.99593	 110.0	 1	    1.15000	    0.85000;
	1501	 1	 0.0	 0.0	 0.0	 0.0	 3	    0.97111	  -14.06388	 110.0	 1	    1.15000	    0.85000;
	1541	 1	 0.0	 0.0	 0.0	 0.0	 6	    0.98813	  -11.86129	 110.0	 1	    1.15000	    0.85000;
	1551	 1	 0.0	 0.0	 0.0	 0.0	 3	    0.98980	   -6.75457	 110.0	 1	    1.15000	    0.85000;
	1581	 1	 0.0	 0.0	 0.0	 0.0	 1	    0.99478	   -5.26088	 110.0	 1	    1.15000	    0.85000;
	1601	 1	 0.0	 0.0	 0.0	 0.0	 3	    0.97615	  -11.20809	 110.0	 1	    1.15000	    0.85000;
	1602	 1	 0.0	 0.0	 0.0	 0.0	 3	    0.97803	  -10.23796	 220.0	 1	    1.15000	    0.85000;
	1611	 1	 0.0	 0.0	 0.0	 0.0	 7	    0.97926	   -9.09067	 110.0	 1	    1.15000	    0.85000;
	1621	 1	 0.0	 0.0	 0.0	 0.0	 3	    0.96615	  -13.45113	 110.0	 1	    1.15000	    0.85000;
	1631	 1	 0.0	 0.0	 0.0	 0.0	 9	    0.93798	   -8.71628	 110.0	 1	    1.15000	    0.85000;
	1641	 1	 0.0	 0.0	 0.0	 0.0	 9	    0.94983	  -10.64299	 110.0	 1	    1.15000	    0.85000;
	1642	 1	 0.0	 0.0	 0.0	 0.0	 9	    0.95171	   -8.78324	 220.0	 1	    1.15000	    0.85000;
	1651	 1	 0.0	 0.0	 0.0	 0.0	 7	    0.96945	   -8.53885	 110.0	 1	    1.15000	    0.85000;
	1661	 1	 0.0	 0.0	 0.0	 0.0	 9	    0.91898	  -14.83001	 110.0	 1	    1.15000	    0.85000;
	1681	 1	 0.0	 0.0	 0.0	 0.0	 3	    0.97230	  -12.24299	 110.0	 1	    1.15000	    0.85000;
	1691	 1	 0.0	 0.0	 0.0	 0.0	 1	    0.99389	   -8.83484	 110.0	 1	    1.15000	    0.85000;
	1701	 1	 0.0	 0.0	 0.0	 0.0	 9	    0.93211	  -10.63615	 110.0	 1	    1.15000	    0.85000;
	1711	 1	 0.0	 0.0	 0.0	 0.0	 1	    1.00263	   -6.13337	 110.0	 1	    1.15000	    0.85000;
	1721	 1	 0.0	 0.0	 0.0	 0.0	 5	    0.95518	  -17.67050	 110.0	 1	    1.15000	    0.85000;
	1731	 1	 0.0	 0.0	 0.0	 0.0	 1	    1.00263	   -6.13337	 110.0	 1	    1.15000	    0.85000;
	1741	 1	 0.0	 0.0	 0.0	 0.0	 2	    0.99406	   -8.78597	 110.0	 1	    1.15000	    0.85000;
	1742	 1	 0.0	 0.0	 0.0	 0.0	 2	    1.00074	   -7.32076	 220.0	 1	    1.15000	    0.85000;
	1761	 1	 0.0	 0.0	 0.0	 0.0	 9	    0.93213	  -10.63646	 110.0	 1	    1.15000	    0.85000;
	1781	 1	 0.0	 0.0	 0.0	 0.0	 7	    0.98323	   -6.35876	 110.0	 1	    1.15000	    0.85000;
	1801	 1	 0.0	 0.0	 0.0	 0.0	 1	    0.99406	   -8.86937	 110.0	 1	    1.15000	    0.85000;
	1821	 1	 0.0	 0.0	 0.0	 0.0	 9	    0.93369	  -12.00243	 110.0	 1	    1.15000	    0.85000;
	1841	 1	 0.0	 0.0	 0.0	 0.0	 6	    0.99127	  -12.61636	 110.0	 1	    1.15000	    0.85000;
	1861	 1	 0.0	 0.0	 0.0	 0.0	 9	    0.94484	  -10.01485	 110.0	 1	    1.15000	    0.85000;
	1871	 1	 0.0	 0.0	 0.0	 0.0	 2	    0.99185	   -6.53040	 110.0	 1	    1.15000	    0.85000;
	1881	 1	 0.0	 0.0	 0.0	 0.0	 3	    0.95601	  -12.79387	 110.0	 1	    1.15000	    0.85000;
	1901	 1	 0.0	 0.0	 0.0	 0.0	 6	    0.96912	  -13.31980	 110.0	 1	    1.15000	    0.85000;
	1921	 1	 0.0	 0.0	 0.0	 0.0	 3	    0.97511	  -13.35058	 110.0	 1	    1.15000	    0.85000;
	1931	 1	 0.0	 0.0	 0.0	 0.0	 9	    0.92591	  -11.55356	 110.0	 1	    1.15000	    0.85000;
	1941	 1	 0.0	 0.0	 0.0	 0.0	 8	    1.01232	   -6.77531	 110.0	 1	    1.15000	    0.85000;
	1951	 1	 0.0	 0.0	 0.0	 0.0	 9	    0.90402	  -15.92117	 110.0	 1	    1.15000	    0.85000;
	1961	 1	 0.0	 0.0	 0.0	 0.0	 3	    0.97037	  -13.62409	 110.0	 1	    1.15000	    0.85000;
	1971	 1	 0.0	 0.0	 0.0	 0.0	 7	    0.98149	   -8.54556	 110.0	 1	    1.15000	    0.85000;
	1981	 1	 0.0	 0.0	 0.0	 0.0	 9	    0.95918	  -10.77766	 110.0	 1	    1.15000	    0.85000;
	1991	 1	 0.0	 0.0	 0.0	 0.0	 6	    0.99337	  -11.81601	 110.0	 1	    1.15000	    0.85000;
	2001	 1	 0.0	 0.0	 0.0	 0.0	 5	    0.96348	  -15.59835	 110.0	 1	    1.15000	    0.85000;
	2002	 1	 0.0	 0.0	 0.0	 0.0	 5	    0.96930	  -13.88572	 220.0	 1	    1.15000	    0.85000;
	2021	 1	 0.0	 0.0	 0.0	 0.0	 1	    0.98052	  -10.36898	 110.0	 1	    1.15000	    0.85000;
	2041	 1	 0.0	 0.0	 0.0	 0.0	 2	    0.99242	   -6.43867	 110.0	 1	    1.15000	    0.85000;
	2042	 1	 0.0	 0.0	 0.0	 0.0	 2	    1.00503	   -3.73673	 220.0	 1	    1.15000	    0.85000;
	2052	 1	 0.0	 0.0	 0.0	 0.0	 2	    1.00501	   -3.74803	 220.0	 1	    1.15000	    0.85000;
	2081	 4	 0.0	 0.0	 0.0	 0.0	 3	    1.00000	    0.00000	 110.0	 1	    1.15000	    0.85000;
	2101	 1	 0.0	 0.0	 0.0	 0.0	 10	    0.98428	   -7.96215	 110.0	 1	    1.15000	    0.85000;
	2121	 1	 0.0	 0.0	 0.0	 0.0	 4	    0.94231	  -13.37178	 110.0	 1	    1.15000	    0.85000;
	2131	 1	 0.0	 0.0	 0.0	 0.0	 3	    0.97087	   -8.43544	 110.0	 1	    1.15000	    0.85000;
	2141	 1	 0.0	 0.0	 0.0	 0.0	 5	    0.95594	  -16.01811	 110.0	 1	    1.15000	    0.85000;
	2161	 1	 0.0	 0.0	 0.0	 0.0	 5	    0.95195	  -17.98851	 110.0	 1	    1.15000	    0.85000;
	2181	 1	 0.0	 0.0	 0.0	 0.0	 10	    0.97466	   -8.81840	 110.0	 1	    1.15000	    0.85000;
	2202	 1	 0.0	 0.0	 0.0	 0.0	 2	    0.99667	   -8.06647	 220.0	 1	    1.15000	    0.85000;
	2204	 1	 0.0	 0.0	 0.0	 0.0	 2	    0.96072	   -6.04790	 380.0	 1	    1.15000	    0.85000;
	2221	 1	 0.0	 0.0	 0.0	 0.0	 3	    0.97121	  -13.14356	 110.0	 1	    1.15000	    0.85000;
	2231	 1	 0.0	 0.0	 0.0	 0.0	 4	    0.94371	  -12.37364	 110.0	 1	    1.15000	    0.85000;
	2241	 1	 0.0	 0.0	 0.0	 0.0	 5	    0.94140	  -12.29506	 110.0	 1	    1.15000	    0.85000;
	2251	 1	 0.0	 0.0	 0.0	 0.0	 1	    1.00310	   -6.10602	 110.0	 1	    1.15000	    0.85000;
	2261	 1	 0.0	 0.0	 0.0	 0.0	 8	    0.96029	  -11.14920	 110.0	 1	    1.15000	    0.85000;
	2281	 1	 0.0	 0.0	 0.0	 0.0	 9	    0.91845	  -14.06095	 110.0	 1	    1.15000	    0.85000;
	2301	 1	 0.0	 0.0	 0.0	 0.0	 8	    0.97056	   -9.94510	 110.0	 1	    1.15000	    0.85000;
	2321	 1	 0.0	 0.0	 0.0	 0.0	 9	    0.91203	  -11.47303	 110.0	 1	    1.15000	    0.85000;
	2361	 1	 0.0	 0.0	 0.0	 0.0	 4	    0.93955	  -12.83372	 110.0	 1	    1.15000	    0.85000;
	2481	 1	 0.0	 0.0	 0.0	 0.0	 2	    0.98948	   -9.02040	 110.0	 1	    1.15000	    0.85000;
	2491	 1	 0.0	 0.0	 0.0	 0.0	 2	    0.98934	   -9.01817	 110.0	 1	    1.15000	    0.85000;
	2521	 1	 0.0	 0.0	 0.0	 0.0	 9	    0.94532	  -10.01973	 110.0	 1	    1.15000	    0.85000;
	2522	 1	 0.0	 0.0	 0.0	 0.0	 9	    0.95431	   -9.07173	 220.0	 1	    1.15000	    0.85000;
	2541	 1	 0.0	 0.0	 0.0	 0.0	 1	    1.00210	   -8.80144	 110.0	 1	    1.15000	    0.85000;
	2551	 1	 0.0	 0.0	 0.0	 0.0	 1	    1.00020	   -8.63324	 110.0	 1	    1.15000	    0.85000;
	2561	 1	 0.0	 0.0	 0.0	 0.0	 2	    0.99703	   -5.09540	 110.0	 1	    1.15000	    0.85000;
	2562	 1	 0.0	 0.0	 0.0	 0.0	 2	    1.00644	   -3.77856	 220.0	 1	    1.15000	    0.85000;
	2563	 1	 0.0	 0.0	 0.0	 0.0	 2	    1.00643	   -3.78858	 220.0	 1	    1.15000	    0.85000;
	2571	 1	 0.0	 0.0	 0.0	 0.0	 2	    1.00368	   -5.92360	 110.0	 1	    1.15000	    0.85000;
	2581	 1	 0.0	 0.0	 0.0	 0.0	 2	    0.99100	   -6.62269	 110.0	 1	    1.15000	    0.85000;
	2671	 1	 0.0	 0.0	 0.0	 0.0	 9	    0.93456	   -8.07135	 110.0	 1	    1.15000	    0.85000;
	2681	 1	 0.0	 0.0	 0.0	 0.0	 9	    0.94641	  -10.34559	 110.0	 1	    1.15000	    0.85000;
	2701	 1	 0.0	 0.0	 0.0	 0.0	 1	    0.98608	   -7.09666	 110.0	 1	    1.15000	    0.85000;
	2721	 1	 0.0	 0.0	 0.0	 0.0	 2	    0.98861	   -9.73277	 110.0	 1	    1.15000	    0.85000;
	2731	 1	 0.0	 0.0	 0.0	 0.0	 7	    0.98151	   -8.54586	 110.0	 1	    1.15000	    0.85000;
	2741	 1	 0.0	 0.0	 0.0	 0.0	 6	    0.96465	  -15.17421	 110.0	 1	    1.15000	    0.85000;
	2742	 1	 0.0	 0.0	 0.0	 0.0	 6	    0.97094	  -13.48777	 220.0	 1	    1.15000	    0.85000;
	2761	 1	 0.0	 0.0	 0.0	 0.0	 1	    1.00240	   -6.15602	 110.0	 1	    1.15000	    0.85000;
	2771	 1	 0.0	 0.0	 0.0	 0.0	 7	    0.98091	   -8.90772	 110.0	 1	    1.15000	    0.85000;
	2780	 1	 0.0	 0.0	 0.0	 0.0	 9	    0.94043	  -11.38590	 110.0	 1	    1.15000	    0.85000;
	2781	 1	 0.0	 0.0	 0.0	 0.0	 9	    0.94043	  -11.38590	 110.0	 1	    1.15000	    0.85000;
	2801	 1	 0.0	 0.0	 0.0	 0.0	 9	    0.92028	  -10.30077	 110.0	 1	    1.15000	    0.85000;
	2821	 1	 0.0	 0.0	 0.0	 0.0	 9	    0.95960	  -11.08822	 110.0	 1	    1.15000	    0.85000;
	2841	 1	 0.0	 0.0	 0.0	 0.0	 10	    0.97677	   -8.82296	 110.0	 1	    1.15000	    0.85000;
	2842	 1	 0.0	 0.0	 0.0	 0.0	 10	    0.98882	   -7.52263	 220.0	 1	    1.15000	    0.85000;
	2852	 1	 0.0	 0.0	 0.0	 0.0	 3	    0.98598	  -11.46217	 220.0	 1	    1.15000	    0.85000;
	2861	 1	 0.0	 0.0	 0.0	 0.0	 1	    0.98116	  -10.15940	 110.0	 1	    1.15000	    0.85000;
	2881	 1	 0.0	 0.0	 0.0	 0.0	 3	    0.96801	  -11.25773	 110.0	 1	    1.15000	    0.85000;
	2941	 1	 0.0	 0.0	 0.0	 0.0	 1	    1.00222	   -8.81363	 110.0	 1	    1.15000	    0.85000;
	2951	 1	 0.0	 0.0	 0.0	 0.0	 1	    1.00041	   -8.61733	 110.0	 1	    1.15000	    0.85000;
	2962	 1	 0.0	 0.0	 0.0	 0.0	 2	    1.00705	   -3.66173	 220.0	 1	    1.15000	    0.85000;
	2972	 1	 0.0	 0.0	 0.0	 0.0	 2	    1.00631	   -3.33311	 220.0	 1	    1.15000	    0.85000;
	3061	 1	 0.0	 0.0	 0.0	 0.0	 3	    0.96645	  -13.28705	 110.0	 1	    1.15000	    0.85000;
	3081	 1	 0.0	 0.0	 0.0	 0.0	 2	    1.00078	   -8.57633	 110.0	 1	    1.15000	    0.85000;
	3082	 1	 0.0	 0.0	 0.0	 0.0	 2	    1.00405	   -7.71281	 220.0	 1	    1.15000	    0.85000;
	3091	 1	 0.0	 0.0	 0.0	 0.0	 2	    0.98612	   -9.96473	 110.0	 1	    1.15000	    0.85000;
	3101	 1	 0.0	 0.0	 0.0	 0.0	 5	    0.91875	  -17.26557	 110.0	 1	    1.15000	    0.85000;
	3122	 1	 0.0	 0.0	 0.0	 0.0	 2	    1.00789	   -6.72981	 220.0	 1	    1.15000	    0.85000;
	3200	 1	 0.0	 0.0	 0.0	 0.0	 3	    0.97975	  -11.87754	 110.0	 1	    1.15000	    0.85000;
	3201	 1	 0.0	 0.0	 0.0	 0.0	 3	    0.97374	  -13.39576	 110.0	 1	    1.15000	    0.85000;
	3202	 1	 0.0	 0.0	 0.0	 0.0	 3	    0.97975	  -11.87754	 220.0	 1	    1.15000	    0.85000;
	3203	 1	 0.0	 0.0	 0.0	 0.0	 3	    0.97976	  -11.88327	 220.0	 1	    1.15000	    0.85000;
	3209	 1	 0.0	 0.0	 0.0	 0.0	 3	    0.97375	  -13.39318	 110.0	 1	    1.15000	    0.85000;
	3221	 1	 0.0	 0.0	 0.0	 0.0	 3	    0.96661	  -13.95108	 110.0	 1	    1.15000	    0.85000;
	3241	 1	 0.0	 0.0	 0.0	 0.0	 8	    0.98780	  -10.79837	 110.0	 1	    1.15000	    0.85000;
	3261	 1	 0.0	 0.0	 0.0	 0.0	 6	    0.94651	  -16.55289	 110.0	 1	    1.15000	    0.85000;
	3281	 1	 0.0	 0.0	 0.0	 0.0	 7	    0.95820	  -12.18329	 110.0	 1	    1.15000	    0.85000;
	3282	 1	 0.0	 0.0	 0.0	 0.0	 7	    0.95711	  -11.11666	 220.0	 1	    1.15000	    0.85000;
	3301	 1	 0.0	 0.0	 0.0	 0.0	 7	    0.96691	   -9.94081	 110.0	 1	    1.15000	    0.85000;
	3321	 1	 0.0	 0.0	 0.0	 0.0	 10	    0.96728	   -9.41590	 110.0	 1	    1.15000	    0.85000;
	3341	 1	 0.0	 0.0	 0.0	 0.0	 6	    0.97393	  -13.23754	 110.0	 1	    1.15000	    0.85000;
	3342	 1	 0.0	 0.0	 0.0	 0.0	 6	    0.97080	  -11.73639	 220.0	 1	    1.15000	    0.85000;
	3361	 1	 0.0	 0.0	 0.0	 0.0	 9	    0.90710	  -11.87507	 110.0	 1	    1.15000	    0.85000;
	3381	 1	 0.0	 0.0	 0.0	 0.0	 8	    0.96174	  -10.95621	 110.0	 1	    1.15000	    0.85000;
	3401	 1	 0.0	 0.0	 0.0	 0.0	 5	    0.95842	  -15.94046	 110.0	 1	    1.15000	    0.85000;
	3421	 1	 0.0	 0.0	 0.0	 0.0	 1	    1.00262	   -6.13298	 110.0	 1	    1.15000	    0.85000;
	3431	 1	 0.0	 0.0	 0.0	 0.0	 1	    0.98086	  -10.17882	 110.0	 1	    1.15000	    0.85000;
	3501	 1	 0.0	 0.0	 0.0	 0.0	 9	    0.92268	  -10.30954	 110.0	 1	    1.15000	    0.85000;
	3521	 1	 0.0	 0.0	 0.0	 0.0	 10	    0.99922	   -7.16107	 110.0	 1	    1.15000	    0.85000;
	3522	 1	 0.0	 0.0	 0.0	 0.0	 10	    0.99353	   -5.84612	 220.0	 1	    1.15000	    0.85000;
	3541	 1	 0.0	 0.0	 0.0	 0.0	 7	    0.95262	  -12.06695	 110.0	 1	    1.15000	    0.85000;
	3561	 1	 0.0	 0.0	 0.0	 0.0	 10	    0.99304	   -9.71030	 110.0	 1	    1.15000	    0.85000;
	3581	 1	 0.0	 0.0	 0.0	 0.0	 9	    0.90709	  -11.87476	 110.0	 1	    1.15000	    0.85000;
	3601	 1	 0.0	 0.0	 0.0	 0.0	 3	    0.96743	  -14.07754	 110.0	 1	    1.15000	    0.85000;
	3611	 1	 0.0	 0.0	 0.0	 0.0	 3	    0.96762	  -14.06535	 110.0	 1	    1.15000	    0.85000;
	3621	 1	 0.0	 0.0	 0.0	 0.0	 5	    0.92654	  -18.58203	 110.0	 1	    1.15000	    0.85000;
	3641	 1	 0.0	 0.0	 0.0	 0.0	 6	    0.99180	  -11.87837	 110.0	 1	    1.15000	    0.85000;
	3642	 1	 0.0	 0.0	 0.0	 0.0	 6	    0.98545	  -11.67256	 220.0	 1	    1.15000	    0.85000;
	3651	 1	 0.0	 0.0	 0.0	 0.0	 5	    0.99179	  -11.87709	 110.0	 1	    1.15000	    0.85000;
	3751	 1	 0.0	 0.0	 0.0	 0.0	 1	    1.00265	   -8.78986	 110.0	 1	    1.15000	    0.85000;
	3761	 1	 0.0	 0.0	 0.0	 0.0	 1	    0.99019	   -6.66746	 110.0	 1	    1.15000	    0.85000;
	3781	 1	 0.0	 0.0	 0.0	 0.0	 1	    0.99463	   -5.25252	 110.0	 1	    1.15000	    0.85000;
	3801	 1	 0.0	 0.0	 0.0	 0.0	 3	    0.97250	  -13.45831	 110.0	 1	    1.15000	    0.85000;
	3821	 1	 0.0	 0.0	 0.0	 0.0	 10	    0.98167	   -7.87318	 110.0	 1	    1.15000	    0.85000;
	3841	 1	 0.0	 0.0	 0.0	 0.0	 2	    0.99014	   -9.62999	 110.0	 1	    1.15000	    0.85000;
	3842	 1	 0.0	 0.0	 0.0	 0.0	 2	    0.99697	   -8.44425	 220.0	 1	    1.15000	    0.85000;
	3851	 1	 0.0	 0.0	 0.0	 0.0	 2	    0.98596	   -8.24273	 110.0	 1	    1.15000	    0.85000;
	3852	 1	 0.0	 0.0	 0.0	 0.0	 2	    0.99517	   -7.11777	 220.0	 1	    1.15000	    0.85000;
	3861	 1	 0.0	 0.0	 0.0	 0.0	 1	    1.00337	   -8.75860	 110.0	 1	    1.15000	    0.85000;
	3871	 1	 0.0	 0.0	 0.0	 0.0	 1	    0.99820	   -8.71231	 110.0	 1	    1.15000	    0.85000;
	3881	 1	 0.0	 0.0	 0.0	 0.0	 3	    0.97335	  -12.10733	 110.0	 1	    1.15000	    0.85000;
	3901	 1	 0.0	 0.0	 0.0	 0.0	 7	    0.95628	  -11.06822	 110.0	 1	    1.15000	    0.85000;
	3934	 1	 0.0	 0.0	 0.0	 0.0	 4	    0.95143	   -0.61281	 380.0	 1	    1.15000	    0.85000;
	3941	 1	 0.0	 0.0	 0.0	 0.0	 4	    0.94869	  -10.89459	 110.0	 1	    1.15000	    0.85000;
	3942	 1	 0.0	 0.0	 0.0	 0.0	 4	    0.96659	   -4.35428	 220.0	 1	    1.15000	    0.85000;
	3944	 1	 0.0	 0.0	 0.0	 0.0	 4	    0.95141	   -0.60812	 380.0	 1	    1.15000	    0.85000;
	3954	 1	 0.0	 0.0	 0.0	 0.0	 4	    0.95137	   -0.60976	 380.0	 1	    1.15000	    0.85000;
	3961	 1	 0.0	 0.0	 0.0	 0.0	 3	    0.96780	  -14.05168	 110.0	 1	    1.15000	    0.85000;
	3981	 1	 0.0	 0.0	 0.0	 0.0	 7	    0.95603	  -11.08374	 110.0	 1	    1.15000	    0.85000;
	3991	 1	 0.0	 0.0	 0.0	 0.0	 7	    0.95604	  -11.08300	 110.0	 1	    1.15000	    0.85000;
	4001	 1	 0.0	 0.0	 0.0	 0.0	 9	    0.92303	  -10.69942	 110.0	 1	    1.15000	    0.85000;
	4021	 1	 0.0	 0.0	 0.0	 0.0	 3	    0.95433	  -13.75463	 110.0	 1	    1.15000	    0.85000;
	4041	 1	 0.0	 0.0	 0.0	 0.0	 9	    0.90754	  -14.00382	 110.0	 1	    1.15000	    0.85000;
	4061	 1	 0.0	 0.0	 0.0	 0.0	 10	    0.98880	   -7.72963	 110.0	 1	    1.15000	    0.85000;
	4071	 1	 0.0	 0.0	 0.0	 0.0	 9	    0.91298	  -11.30215	 110.0	 1	    1.15000	    0.85000;
	4081	 1	 0.0	 0.0	 0.0	 0.0	 8	    0.98449	  -10.69779	 110.0	 1	    1.15000	    0.85000;
	4101	 1	 0.0	 0.0	 0.0	 0.0	 1	    1.00247	   -6.14714	 110.0	 1	    1.15000	    0.85000;
...
];

%% generator data
%	bus	Pg	Qg	Qmax	Qmin	Vg	mBase	status	Pmax	Pmin	Pc1	Pc2	Qc1min	Qc1max	Qc2min	Qc2max	ramp_agc	ramp_10	ramp_30	ramp_q	apf
mpc.gen = [
	10271	 21.0	 0.0	 15.0	 -7.0	 0.90772	 34.0	 0	 21.0	 5.0	 0.0	 0.0	 0.0	 0.0	 0.0	 0.0	 0.0	 0.0	 0.0	 0.0	 0.0; % NG
	10272	 22.0	 0.0	 15.0	 -7.0	 0.90772	 34.0	 0	 22.0	 5.0	 0.0	 0.0	 0.0	 0.0	 0.0	 0.0	 0.0	 0.0	 0.0	 0.0	 0.0; % NG
	10273	 19.0	 0.0	 15.0	 -7.0	 0.90772	 34.0	 0	 19.0	 5.0	 0.0	 0.0	 0.0	 0.0	 0.0	 0.0	 0.0	 0.0	 0.0	 0.0	 0.0; % NG
	10274	 24.0	 0.0	 15.0	 -7.0	 0.90772	 34.0	 0	 24.0	 5.0	 0.0	 0.0	 0.0	 0.0	 0.0	 0.0	 0.0	 0.0	 0.0	 0.0	 0.0; % NG
	10275	 0.0	 0.0	 0.0	 0.0	 0.90063	 8.35	 1	 7.5	 0.0	 0.0	 0.0	 0.0	 0.0	 0.0	 0.0	 0.0	 0.0	 0.0	 0.0	 0.0; % NG
	10276	 0.0	 0.0	 0.0	 0.0	 0.90063	 0.85	 1	 0.66	 0.0	 0.0	 0.0	 0.0	 0.0	 0.0	 0.0	 0.0	 0.0	 0.0	 0.0	 0.0; % PEL
	10470	 222.0	 35.022	 270.0	 -170.0	 0.97215	 500.0	 1	 443.0	 222.0	 0.0	 0.0	 0.0	 0.0	 0.0	 0.0	 0.0	 0.0	 0.0	 0.0	 0.0; % NG
	10471	 270.0	 0.0	 159.0	 -75.0	 0.93725	 318.8	 0	 270.0	 40.0	 0.0	 0.0	 0.0	 0.0	 0.0	 0.0	 0.0	 0.0	 0.0	 0.0	 0.0; % NG
	10472	 90.0	 0.0	 60.0	 -30.0	 0.93874	 100.9	 0	 90.0	 13.0	 0.0	 0.0	 0.0	 0.0	 0.0	 0.0	 0.0	 0.0	 0.0	 0.0	 0.0; % NG
	10473	 90.0	 0.0	 60.0	 -30.0	 0.93874	 100.9	 0	 90.0	 13.0	 0.0	 0.0	 0.0	 0.0	 0.0	 0.0	 0.0	 0.0	 0.0	 0.0	 0.0; % NG
	10474	 90.0	 0.0	 60.0	 -30.0	 0.93951	 100.9	 0	 90.0	 13.0	 0.0	 0.0	 0.0	 0.0	 0.0	 0.0	 0.0	 0.0	 0.0	 0.0	 0.0; % NG
	10671	 0.0	 -1.94	 -1.94	 -1.94	 0.90549	 4.8	 1	 4.8	 0.0	 0.0	 0.0	 0.0	 0.0	 0.0	 0.0	 0.0	 0.0	 0.0	 0.0	 0.0; % PEL
	10672	 5.0	 -2.0	 -2.0	 -2.0	 0.90988	 6.0	 1	 5.0	 0.0	 0.0	 0.0	 0.0	 0.0	 0.0	 0.0	 0.0	 0.0	 0.0	 0.0	 0.0; % NG
	10673	 0.0	 -0.48	 -0.48	 -0.48	 0.90573	 1.2	 1	 1.2	 0.0	 0.0	 0.0	 0.0	 0.0	 0.0	 0.0	 0.0	 0.0	 0.0	 0.0	 0.0; % PEL
	10674	 4.574	 -1.77	 -1.77	 -2.3	 0.91019	 4.6	 1	 4.6	 0.0	 0.0	 0.0	 0.0	 0.0	 0.0	 0.0	 0.0	 0.0	 0.0	 0.0	 0.0; % NG
	11204	 1.0	 0.0	 0.0	 0.0	 0.98272	 1.6	 0	 1.0	 0.0	 0.0	 0.0	 0.0	 0.0	 0.0	 0.0	 0.0	 0.0	 0.0	 0.0	 0.0; % PEL
	11271	 25.2	 0.0	 0.0	 0.0	 0.92548	 28.0	 1	 25.2	 0.0	 0.0	 0.0	 0.0	 0.0	 0.0	 0.0	 0.0	 0.0	 0.0	 0.0	 0.0; % COW
	12371	 0.0	 6.992	 7.0	 -7.0	 1.0439	 32.0	 1	 31.5	 0.0	 0.0	 0.0	 0.0	 0.0	 0.0	 0.0	 0.0	 0.0	 0.0	 0.0	 0.0; % NG
	12372	 10.5	 0.0	 0.0	 0.0	 1.03834	 10.0	 1	 10.5	 0.0	 0.0	 0.0	 0.0	 0.0	 0.0	 0.0	 0.0	 0.0	 0.0	 0.0	 0.0; % NG
	12571	 19.45	 0.0	 0.0	 0.0	 0.96635	 25.05	 1	 19.45	 0.0	 0.0	 0.0	 0.0	 0.0	 0.0	 0.0	 0.0	 0.0	 0.0	 0.0	 0.0; % COW
	12572	 0.0	 0.845	 0.99	 -0.99	 0.97991	 3.34	 1	 3.0	 0.0	 0.0	 0.0	 0.0	 0.0	 0.0	 0.0	 0.0	 0.0	 0.0	 0.0	 0.0; % PEL
	12573	 0.0	 2.418	 2.96	 -2.96	 0.9799	 10.02	 1	 9.0	 0.0	 0.0	 0.0	 0.0	 0.0	 0.0	 0.0	 0.0	 0.0	 0.0	 0.0	 0.0; % NG
	12872	 0.0	 0.0	 0.0	 -2.76	 0.94062	 9.2	 1	 8.4	 0.0	 0.0	 0.0	 0.0	 0.0	 0.0	 0.0	 0.0	 0.0	 0.0	 0.0	 0.0; % NG
	12873	 0.0	 0.0	 0.0	 0.0	 0.94062	 20.7	 1	 19.55	 0.0	 0.0	 0.0	 0.0	 0.0	 0.0	 0.0	 0.0	 0.0	 0.0	 0.0	 0.0; % NG
	12874	 8.5	 0.0	 0.0	 0.0	 0.92349	 8.5	 1	 8.5	 0.0	 0.0	 0.0	 0.0	 0.0	 0.0	 0.0	 0.0	 0.0	 0.0	 0.0	 0.0; % COW
	13434	 4.3	 0.0	 0.0	 0.0	 0.96303	 4.5	 0	 4.3	 0.0	 0.0	 0.0	 0.0	 0.0	 0.0	 0.0	 0.0	 0.0	 0.0	 0.0	 0.0; % NG
	13471	 0.0	 0.0	 0.0	 0.0	 0.91173	 0.66	 1	 0.66	 0.0	 0.0	 0.0	 0.0	 0.0	 0.0	 0.0	 0.0	 0.0	 0.0	 0.0	 0.0; % PEL
	13472	 0.0	 0.0	 0.0	 -0.84	 0.92275	 2.7	 1	 2.55	 0.0	 0.0	 0.0	 0.0	 0.0	 0.0	 0.0	 0.0	 0.0	 0.0	 0.0	 0.0; % PEL
	13473	 10.0	 0.0	 0.0	 0.0	 0.90207	 10.0	 1	 10.0	 0.0	 0.0	 0.0	 0.0	 0.0	 0.0	 0.0	 0.0	 0.0	 0.0	 0.0	 0.0; % NG
	13475	 5.762	 0.0	 0.0	 0.0	 0.9147	 7.65	 1	 7.65	 0.0	 0.0	 0.0	 0.0	 0.0	 0.0	 0.0	 0.0	 0.0	 0.0	 0.0	 0.0; % NG
	13476	 11.9	 0.0	 0.0	 0.0	 0.921	 11.5	 1	 11.9	 0.0	 0.0	 0.0	 0.0	 0.0	 0.0	 0.0	 0.0	 0.0	 0.0	 0.0	 0.0; % NG
	13477	 0.0	 0.0	 0.0	 0.0	 0.91656	 2.7	 1	 2.55	 0.0	 0.0	 0.0	 0.0	 0.0	 0.0	 0.0	 0.0	 0.0	 0.0	 0.0	 0.0; % PEL
	13479	 0.0	 0.0	 0.0	 0.0	 0.90895	 3.4	 1	 3.4	 0.0	 0.0	 0.0	 0.0	 0.0	 0.0	 0.0	 0.0	 0.0	 0.0	 0.0	 0.0; % PEL
	14073	 0.0	 -2.4	 -2.4	 -2.4	 0.89297	 7.611	 1	 6.45	 0.0	 0.0	 0.0	 0.0	 0.0	 0.0	 0.0	 0.0	 0.0	 0.0	 0.0	 0.0; % NG
	14471	 0.0	 0.0	 0.0	 0.0	 0.96641	 4.0	 1	 4.0	 0.0	 0.0	 0.0	 0.0	 0.0	 0.0	 0.0	 0.0	 0.0	 0.0	 0.0	 0.0; % PEL
	14472	 0.85	 0.0	 0.0	 0.0	 0.96637	 0.85	 1	 0.85	 0.0	 0.0	 0.0	 0.0	 0.0	 0.0	 0.0	 0.0	 0.0	 0.0	 0.0	 0.0; % NG
	14604	 4.8	 0.0	 0.0	 0.0	 0.98493	 7.0	 0	 4.8	 0.0	 0.0	 0.0	 0.0	 0.0	 0.0	 0.0	 0.0	 0.0	 0.0	 0.0	 0.0; % NG
	14871	 0.0	 0.0	 0.0	 0.0	 0.93402	 4.6	 1	 1.7	 0.0	 0.0	 0.0	 0.0	 0.0	 0.0	 0.0	 0.0	 0.0	 0.0	 0.0	 0.0; % PEL
	15573	 0.0	 0.0	 0.0	 0.0	 0.95157	 23.0	 1	 20.0	 0.0	 0.0	 0.0	 0.0	 0.0	 0.0	 0.0	 0.0	 0.0	 0.0	 0.0	 0.0; % NG
	15771	 0.0	 -0.3	 -0.3	 -0.3	 0.94869	 1.98	 1	 1.98	 0.0	 0.0	 0.0	 0.0	 0.0	 0.0	 0.0	 0.0	 0.0	 0.0	 0.0	 0.0; % PEL
	15772	 0.0	 -1.92	 -1.92	 -1.92	 0.92187	 3.0	 1	 3.0	 0.0	 0.0	 0.0	 0.0	 0.0	 0.0	 0.0	 0.0	 0.0	 0.0	 0.0	 0.0; % NG
	16371	 3.4	 0.0	 0.0	 0.0	 0.94648	 3.4	 1	 3.4	 0.0	 0.0	 0.0	 0.0	 0.0	 0.0	 0.0	 0.0	 0.0	 0.0	 0.0	 0.0; % NG
	16372	 0.0	 0.0	 0.0	 0.0	 0.9458	 3.4	 1	 3.4	 0.0	 0.0	 0.0	 0.0	 0.0	 0.0	 0.0	 0.0	 0.0	 0.0	 0.0	 0.0; % PEL
	16373	 6.8	 0.0	 0.0	 0.0	 0.94648	 6.8	 1	 6.8	 0.0	 0.0	 0.0	 0.0	 0.0	 0.0	 0.0	 0.0	 0.0	 0.0	 0.0	 0.0; % NG
	16374	 0.0	 0.0	 0.0	 0.0	 0.94488	 7.65	 1	 7.65	 0.0	 0.0	 0.0	 0.0	 0.0	 0.0	 0.0	 0.0	 0.0	 0.0	 0.0	 0.0; % NG
	16375	 0.0	 0.0	 0.0	 0.0	 0.94488	 4.25	 1	 3.96	 0.0	 0.0	 0.0	 0.0	 0.0	 0.0	 0.0	 0.0	 0.0	 0.0	 0.0	 0.0; % PEL
	16376	 0.0	 0.0	 0.0	 0.0	 0.9458	 5.1	 1	 4.95	 0.0	 0.0	 0.0	 0.0	 0.0	 0.0	 0.0	 0.0	 0.0	 0.0	 0.0	 0.0; % PEL
	16377	 6.066	 0.0	 0.0	 0.0	 0.94897	 9.2	 1	 9.0	 0.0	 0.0	 0.0	 0.0	 0.0	 0.0	 0.0	 0.0	 0.0	 0.0	 0.0	 0.0; % NG
	16379	 0.29	 0.0	 0.0	 0.0	 0.94597	 0.323	 1	 0.29	 0.0	 0.0	 0.0	 0.0	 0.0	 0.0	 0.0	 0.0	 0.0	 0.0	 0.0	 0.0; % NG
	16571	 0.0	 0.0	 0.0	 0.0	 0.96945	 40.0	 1	 37.8	 0.0	 0.0	 0.0	 0.0	 0.0	 0.0	 0.0	 0.0	 0.0	 0.0	 0.0	 0.0; % PEL
	16670	 3.233	 0.0	 0.0	 -3.07	 0.88586	 4.5	 1	 4.5	 0.0	 0.0	 0.0	 0.0	 0.0	 0.0	 0.0	 0.0	 0.0	 0.0	 0.0	 0.0; % NG
	16671	 0.864	 0.0	 0.0	 0.0	 0.86885	 3.4	 1	 3.4	 0.0	 0.0	 0.0	 0.0	 0.0	 0.0	 0.0	 0.0	 0.0	 0.0	 0.0	 0.0; % NG
	16672	 0.0	 -0.56	 -0.56	 -0.56	 0.85	 1.7	 1	 1.59	 0.0	 0.0	 0.0	 0.0	 0.0	 0.0	 0.0	 0.0	 0.0	 0.0	 0.0	 0.0; % PEL
	16674	 17.177	 0.0	 0.0	 0.0	 0.89862	 18.7	 1	 18.7	 0.0	 0.0	 0.0	 0.0	 0.0	 0.0	 0.0	 0.0	 0.0	 0.0	 0.0	 0.0; % NG
	16675	 0.571	 -2.65	 -2.65	 -2.65	 0.85603	 8.0	 1	 8.0	 0.0	 0.0	 0.0	 0.0	 0.0	 0.0	 0.0	 0.0	 0.0	 0.0	 0.0	 0.0; % COW
	16873	 8.0	 0.0	 7.0	 -1.0	 0.926	 11.5	 0	 8.0	 2.0	 0.0	 0.0	 0.0	 0.0	 0.0	 0.0	 0.0	 0.0	 0.0	 0.0	 0.0; % NG
	17073	 22.5	 0.0	 15.0	 -5.0	 0.90735	 30.0	 0	 22.5	 5.0	 0.0	 0.0	 0.0	 0.0	 0.0	 0.0	 0.0	 0.0	 0.0	 0.0	 0.0; % PEL
	17074	 22.5	 0.0	 23.0	 -25.0	 0.90722	 35.5	 0	 22.5	 5.0	 0.0	 0.0	 0.0	 0.0	 0.0	 0.0	 0.0	 0.0	 0.0	 0.0	 0.0; % COW
	17075	 0.0	 -0.8	 -0.8	 -0.8	 0.88692	 1.98	 1	 1.98	 0.0	 0.0	 0.0	 0.0	 0.0	 0.0	 0.0	 0.0	 0.0	 0.0	 0.0	 0.0; % PEL
	17077	 0.0	 0.0	 0.0	 0.0	 0.90893	 1.2	 1	 0.02	 0.0	 0.0	 0.0	 0.0	 0.0	 0.0	 0.0	 0.0	 0.0	 0.0	 0.0	 0.0; % NG
	17671	 10.0	 0.0	 7.0	 -3.0	 0.91077	 12.5	 0	 10.0	 3.0	 0.0	 0.0	 0.0	 0.0	 0.0	 0.0	 0.0	 0.0	 0.0	 0.0	 0.0; % NG
	17672	 10.0	 0.0	 7.0	 -3.0	 0.9089	 12.5	 0	 10.0	 3.0	 0.0	 0.0	 0.0	 0.0	 0.0	 0.0	 0.0	 0.0	 0.0	 0.0	 0.0; % PEL
	18471	 0.0	 0.0	 0.0	 0.0	 0.93805	 5.2	 1	 4.99	 0.0	 0.0	 0.0	 0.0	 0.0	 0.0	 0.0	 0.0	 0.0	 0.0	 0.0	 0.0; % PEL
	19081	 0.0	 0.0	 0.0	 0.0	 0.91951	 2.55	 1	 2.55	 0.0	 0.0	 0.0	 0.0	 0.0	 0.0	 0.0	 0.0	 0.0	 0.0	 0.0	 0.0; % PEL
	19082	 0.0	 0.0	 0.0	 0.0	 0.91951	 1.7	 1	 1.7	 0.0	 0.0	 0.0	 0.0	 0.0	 0.0	 0.0	 0.0	 0.0	 0.0	 0.0	 0.0; % PEL
	19083	 0.0	 0.0	 0.0	 0.0	 0.93196	 6.9	 1	 4.99	 0.0	 0.0	 0.0	 0.0	 0.0	 0.0	 0.0	 0.0	 0.0	 0.0	 0.0	 0.0; % NG
	19084	 4.5	 -1.5	 -1.5	 -1.5	 0.91798	 4.6	 1	 4.5	 0.0	 0.0	 0.0	 0.0	 0.0	 0.0	 0.0	 0.0	 0.0	 0.0	 0.0	 0.0; % NG
	19085	 0.0	 -7.0	 -7.0	 -7.0	 0.89963	 23.824	 1	 21.0	 0.0	 0.0	 0.0	 0.0	 0.0	 0.0	 0.0	 0.0	 0.0	 0.0	 0.0	 0.0; % PEL
	19317	 0.0	 -4.053	 6.0	 -6.0	 0.8649	 6.0	 1	 0.0	 0.0	 0.0	 0.0	 0.0	 0.0	 0.0	 0.0	 0.0	 0.0	 0.0	 0.0	 0.0; % SYNC
	19371	 0.0	 0.0	 0.0	 0.0	 0.88564	 29.78	 1	 23.75	 0.0	 0.0	 0.0	 0.0	 0.0	 0.0	 0.0	 0.0	 0.0	 0.0	 0.0	 0.0; % PEL
	19372	 11.05	 0.0	 0.0	 0.0	 0.90417	 11.05	 1	 11.05	 0.0	 0.0	 0.0	 0.0	 0.0	 0.0	 0.0	 0.0	 0.0	 0.0	 0.0	 0.0; % NG
	19471	 133.5	 53.601	 94.0	 -50.0	 0.98241	 153.0	 1	 133.5	 60.0	 0.0	 0.0	 0.0	 0.0	 0.0	 0.0	 0.0	 0.0	 0.0	 0.0	 0.0; % NG
	19472	 58.274	 0.0	 38.0	 -23.0	 0.99886	 66.625	 0	 58.274	 19.7	 0.0	 0.0	 0.0	 0.0	 0.0	 0.0	 0.0	 0.0	 0.0	 0.0	 0.0; % NG
	19473	 58.274	 0.0	 40.0	 -23.0	 0.97396	 66.625	 0	 58.274	 19.7	 0.0	 0.0	 0.0	 0.0	 0.0	 0.0	 0.0	 0.0	 0.0	 0.0	 0.0; % PEL
	19601	 0.0	 0.0	 0.0	 0.0	 0.95918	 6.5	 1	 5.85	 0.0	 0.0	 0.0	 0.0	 0.0	 0.0	 0.0	 0.0	 0.0	 0.0	 0.0	 0.0; % PEL
	19771	 42.5	 0.0	 0.0	 0.0	 0.98317	 46.875	 1	 42.5	 0.0	 0.0	 0.0	 0.0	 0.0	 0.0	 0.0	 0.0	 0.0	 0.0	 0.0	 0.0; % NG
	19772	 0.0	 2.79	 2.79	 -2.79	 1.04126	 8.5	 1	 8.5	 0.0	 0.0	 0.0	 0.0	 0.0	 0.0	 0.0	 0.0	 0.0	 0.0	 0.0	 0.0; % NG
	19773	 0.0	 6.443	 9.86	 -9.86	 1.03611	 38.714	 1	 30.0	 0.0	 0.0	 0.0	 0.0	 0.0	 0.0	 0.0	 0.0	 0.0	 0.0	 0.0	 0.0; % PEL
	19971	 0.0	 6.7	 6.7	 -6.7	 1.05316	 20.7	 1	 20.0	 0.0	 0.0	 0.0	 0.0	 0.0	 0.0	 0.0	 0.0	 0.0	 0.0	 0.0	 0.0; % NG
	19972	 0.0	 0.0	 0.0	 0.0	 1.0362	 2.3	 1	 2.3	 0.0	 0.0	 0.0	 0.0	 0.0	 0.0	 0.0	 0.0	 0.0	 0.0	 0.0	 0.0; % NG
	19973	 0.0	 0.0	 0.0	 0.0	 1.0362	 2.3	 1	 2.3	 0.0	 0.0	 0.0	 0.0	 0.0	 0.0	 0.0	 0.0	 0.0	 0.0	 0.0	 0.0; % PEL
	19974	 16.1	 3.999	 4.0	 -4.0	 1.05444	 16.1	 1	 16.1	 0.0	 0.0	 0.0	 0.0	 0.0	 0.0	 0.0	 0.0	 0.0	 0.0	 0.0	 0.0; % NG
	21071	 0.0	 0.0	 0.0	 0.0	 1.0016	 0.85	 1	 0.5	 0.0	 0.0	 0.0	 0.0	 0.0	 0.0	 0.0	 0.0	 0.0	 0.0	 0.0	 0.0; % PEL
	21371	 0.0	 2.824	 9.5	 -9.5	 1.01069	 31.73	 1	 28.5	 0.0	 0.0	 0.0	 0.0	 0.0	 0.0	 0.0	 0.0	 0.0	 0.0	 0.0	 0.0; % NG
	21871	 0.0	 0.0	 0.0	 0.0	 0.92246	 1.7	 1	 1.7	 0.0	 0.0	 0.0	 0.0	 0.0	 0.0	 0.0	 0.0	 0.0	 0.0	 0.0	 0.0; % PEL
	21872	 0.0	 -0.99	 -0.99	 -1.28	 0.90047	 2.7	 1	 2.5	 0.0	 0.0	 0.0	 0.0	 0.0	 0.0	 0.0	 0.0	 0.0	 0.0	 0.0	 0.0; % PEL
	22273	 0.0	 0.0	 0.0	 -1.48	 0.95506	 4.0	 1	 4.5	 0.0	 0.0	 0.0	 0.0	 0.0	 0.0	 0.0	 0.0	 0.0	 0.0	 0.0	 0.0; % NG
	22274	 0.0	 -2.4	 -2.4	 -2.4	 0.90943	 5.94	 1	 5.94	 0.0	 0.0	 0.0	 0.0	 0.0	 0.0	 0.0	 0.0	 0.0	 0.0	 0.0	 0.0; % PEL
	22275	 0.0	 0.0	 0.0	 0.0	 1.01141	 4.25	 1	 4.25	 0.0	 0.0	 0.0	 0.0	 0.0	 0.0	 0.0	 0.0	 0.0	 0.0	 0.0	 0.0; % PEL
	22276	 0.0	 0.0	 0.0	 0.0	 0.93998	 6.68	 1	 5.95	 0.0	 0.0	 0.0	 0.0	 0.0	 0.0	 0.0	 0.0	 0.0	 0.0	 0.0	 0.0; % PEL
	22278	 4.62	 -1.0	 -1.0	 -1.0	 0.93338	 4.62	 1	 4.62	 0.0	 0.0	 0.0	 0.0	 0.0	 0.0	 0.0	 0.0	 0.0	 0.0	 0.0	 0.0; % NG
	22292	 6.0	 0.0	 0.0	 0.0	 0.93967	 6.0	 0	 6.0	 0.0	 0.0	 0.0	 0.0	 0.0	 0.0	 0.0	 0.0	 0.0	 0.0	 0.0	 0.0; % PEL
	22371	 0.0	 0.0	 0.0	 0.0	 0.94371	 59.5	 1	 59.5	 0.0	 0.0	 0.0	 0.0	 0.0	 0.0	 0.0	 0.0	 0.0	 0.0	 0.0	 0.0; % NG
	22471	 0.0	 0.0	 0.0	 0.0	 0.89477	 2.55	 1	 2.55	 0.0	 0.0	 0.0	 0.0	 0.0	 0.0	 0.0	 0.0	 0.0	 0.0	 0.0	 0.0; % PEL
	22472	 0.0	 0.0	 0.0	 0.0	 0.89477	 4.25	 1	 4.25	 0.0	 0.0	 0.0	 0.0	 0.0	 0.0	 0.0	 0.0	 0.0	 0.0	 0.0	 0.0; % PEL
	22671	 52.1	 0.0	 32.6	 -22.7	 0.93447	 62.0	 0	 52.1	 1.2	 0.0	 0.0	 0.0	 0.0	 0.0	 0.0	 0.0	 0.0	 0.0	 0.0	 0.0; % NG
	22672	 52.1	 0.0	 32.6	 -22.7	 0.92687	 62.0	 0	 52.1	 1.2	 0.0	 0.0	 0.0	 0.0	 0.0	 0.0	 0.0	 0.0	 0.0	 0.0	 0.0; % PEL
	22871	 0.0	 -1.024	 -0.84	 -1.09	 0.85	 2.4	 1	 2.4	 0.0	 0.0	 0.0	 0.0	 0.0	 0.0	 0.0	 0.0	 0.0	 0.0	 0.0	 0.0; % PEL
	26771	 26.0	 -3.929	 10.0	 -10.0	 0.88097	 26.0	 1	 26.0	 0.0	 0.0	 0.0	 0.0	 0.0	 0.0	 0.0	 0.0	 0.0	 0.0	 0.0	 0.0; % NG
	26772	 6.0	 0.0	 0.0	 0.0	 0.8936	 6.0	 1	 6.0	 6.0	 0.0	 0.0	 0.0	 0.0	 0.0	 0.0	 0.0	 0.0	 0.0	 0.0	 0.0; % PEL
	26773	 0.0	 -9.946	 10.0	 -10.0	 0.85	 22.0	 1	 22.0	 0.0	 0.0	 0.0	 0.0	 0.0	 0.0	 0.0	 0.0	 0.0	 0.0	 0.0	 0.0; % PEL
	26774	 6.0	 0.0	 0.0	 0.0	 0.88681	 6.0	 1	 6.0	 6.0	 0.0	 0.0	 0.0	 0.0	 0.0	 0.0	 0.0	 0.0	 0.0	 0.0	 0.0; % NG
	27071	 0.0	 0.0	 0.0	 0.0	 0.93318	 0.8	 1	 0.8	 0.0	 0.0	 0.0	 0.0	 0.0	 0.0	 0.0	 0.0	 0.0	 0.0	 0.0	 0.0; % PEL
	27204	 4.0	 0.0	 1.0	 -1.0	 0.98568	 5.0	 0	 4.0	 0.0	 0.0	 0.0	 0.0	 0.0	 0.0	 0.0	 0.0	 0.0	 0.0	 0.0	 0.0; % NG
	27361	 0.0	 0.0	 12.3	 -12.3	 0.94376	 12.3	 0	 0.0	 0.0	 0.0	 0.0	 0.0	 0.0	 0.0	 0.0	 0.0	 0.0	 0.0	 0.0	 0.0; % SYNC
	27371	 0.0	 0.0	 0.0	 0.0	 0.94376	 14.45	 1	 12.8	 0.0	 0.0	 0.0	 0.0	 0.0	 0.0	 0.0	 0.0	 0.0	 0.0	 0.0	 0.0; % PEL
	27372	 0.0	 0.0	 0.0	 0.0	 0.94376	 18.75	 1	 17.0	 0.0	 0.0	 0.0	 0.0	 0.0	 0.0	 0.0	 0.0	 0.0	 0.0	 0.0	 0.0; % NG
	27471	 57.0	 0.0	 42.0	 -3.0	 0.91689	 75.0	 0	 57.0	 25.0	 0.0	 0.0	 0.0	 0.0	 0.0	 0.0	 0.0	 0.0	 0.0	 0.0	 0.0; % PEL
	27472	 51.8	 0.0	 40.0	 -3.0	 0.91703	 75.0	 0	 51.8	 25.0	 0.0	 0.0	 0.0	 0.0	 0.0	 0.0	 0.0	 0.0	 0.0	 0.0	 0.0; % NG
	27473	 121.0	 0.0	 82.0	 -48.0	 0.92142	 150.0	 0	 121.0	 30.0	 0.0	 0.0	 0.0	 0.0	 0.0	 0.0	 0.0	 0.0	 0.0	 0.0	 0.0; % COW
	27771	 0.0	 1.208	 13.0	 -13.61	 1.00423	 41.4	 1	 41.225	 0.0	 0.0	 0.0	 0.0	 0.0	 0.0	 0.0	 0.0	 0.0	 0.0	 0.0	 0.0; % NG
	27772	 0.0	 -2.0	 -2.0	 -2.0	 0.97019	 11.912	 1	 10.0	 0.0	 0.0	 0.0	 0.0	 0.0	 0.0	 0.0	 0.0	 0.0	 0.0	 0.0	 0.0; % NG
	27773	 0.0	 -1.0	 -1.0	 -1.0	 0.96851	 4.6	 1	 5.0	 0.0	 0.0	 0.0	 0.0	 0.0	 0.0	 0.0	 0.0	 0.0	 0.0	 0.0	 0.0; % COW
	27774	 18.0	 -3.0	 -3.0	 -3.0	 0.99911	 18.4	 1	 18.0	 0.0	 0.0	 0.0	 0.0	 0.0	 0.0	 0.0	 0.0	 0.0	 0.0	 0.0	 0.0; % NG
	27871	 0.0	 -0.7	 -0.7	 -0.7	 0.88023	 3.3	 1	 3.3	 0.0	 0.0	 0.0	 0.0	 0.0	 0.0	 0.0	 0.0	 0.0	 0.0	 0.0	 0.0; % NG
	28071	 15.0	 -6.0	 -6.0	 -6.0	 0.87076	 15.0	 1	 15.0	 0.0	 0.0	 0.0	 0.0	 0.0	 0.0	 0.0	 0.0	 0.0	 0.0	 0.0	 0.0; % NG
	28271	 0.0	 -1.2	 -1.2	 -1.2	 0.90131	 3.34	 1	 3.0	 0.0	 0.0	 0.0	 0.0	 0.0	 0.0	 0.0	 0.0	 0.0	 0.0	 0.0	 0.0; % NG
	28571	 110.1	 5.501	 282.1	 -190.0	 0.96325	 535.5	 1	 450.5	 110.1	 0.0	 0.0	 0.0	 0.0	 0.0	 0.0	 0.0	 0.0	 0.0	 0.0	 0.0; % COW
	28872	 10.5	 0.0	 0.0	 0.0	 1.05649	 13.8	 1	 10.5	 0.0	 0.0	 0.0	 0.0	 0.0	 0.0	 0.0	 0.0	 0.0	 0.0	 0.0	 0.0; % NG
	28873	 0.0	 5.42	 5.42	 -5.42	 1.06969	 18.4	 1	 16.5	 0.0	 0.0	 0.0	 0.0	 0.0	 0.0	 0.0	 0.0	 0.0	 0.0	 0.0	 0.0; % PEL
	28874	 26.0	 0.0	 0.0	 0.0	 0.93612	 27.6	 1	 26.0	 0.0	 0.0	 0.0	 0.0	 0.0	 0.0	 0.0	 0.0	 0.0	 0.0	 0.0	 0.0; % NG
	29671	 123.0	 9.019	 107.0	 -53.0	 1.00161	 150.0	 1	 123.0	 40.0	 0.0	 0.0	 0.0	 0.0	 0.0	 0.0	 0.0	 0.0	 0.0	 0.0	 0.0; % COW
	29672	 236.2	 86.285	 181.0	 -87.0	 0.98887	 288.0	 1	 236.2	 138.0	 0.0	 0.0	 0.0	 0.0	 0.0	 0.0	 0.0	 0.0	 0.0	 0.0	 0.0; % NG
	29673	 400.0	 86.265	 255.0	 -170.0	 0.93458	 473.0	 1	 400.0	 194.0	 0.0	 0.0	 0.0	 0.0	 0.0	 0.0	 0.0	 0.0	 0.0	 0.0	 0.0; % COW
	30671	 15.0	 0.0	 13.0	 -4.0	 0.94223	 21.4	 0	 15.0	 4.0	 0.0	 0.0	 0.0	 0.0	 0.0	 0.0	 0.0	 0.0	 0.0	 0.0	 0.0; % NG
	30671	 4.0	 0.0	 3.0	 -1.0	 0.94223	 5.7	 0	 4.0	 1.0	 0.0	 0.0	 0.0	 0.0	 0.0	 0.0	 0.0	 0.0	 0.0	 0.0	 0.0; % NG
	31071	 0.0	 0.0	 0.0	 0.0	 0.87871	 2.55	 1	 2.55	 0.0	 0.0	 0.0	 0.0	 0.0	 0.0	 0.0	 0.0	 0.0	 0.0	 0.0	 0.0; % PEL
	31074	 0.0	 0.0	 0.0	 0.0	 0.87871	 2.55	 1	 2.55	 0.0	 0.0	 0.0	 0.0	 0.0	 0.0	 0.0	 0.0	 0.0	 0.0	 0.0	 0.0; % PEL
	31271	 409.9	 155.332	 295.0	 -100.0	 0.90874	 500.0	 1	 409.9	 163.0	 0.0	 0.0	 0.0	 0.0	 0.0	 0.0	 0.0	 0.0	 0.0	 0.0	 0.0; % COW
	32404	 4.26	 0.0	 1.0	 -1.0	 0.99152	 4.8	 0	 4.26	 0.0	 0.0	 0.0	 0.0	 0.0	 0.0	 0.0	 0.0	 0.0	 0.0	 0.0	 0.0; % NG
	32576	 11.2	 0.0	 0.0	 -5.03	 0.97659	 11.2	 1	 11.2	 0.0	 0.0	 0.0	 0.0	 0.0	 0.0	 0.0	 0.0	 0.0	 0.0	 0.0	 0.0; % COW
	32577	 0.0	 -0.0	 0.0	 -5.03	 0.97122	 3.6	 1	 3.6	 0.0	 0.0	 0.0	 0.0	 0.0	 0.0	 0.0	 0.0	 0.0	 0.0	 0.0	 0.0; % PEL
	32578	 1.25	 0.0	 0.0	 0.0	 0.97122	 1.25	 0	 1.25	 0.0	 0.0	 0.0	 0.0	 0.0	 0.0	 0.0	 0.0	 0.0	 0.0	 0.0	 0.0; % PEL
	32604	 7.5	 0.0	 1.0	 -1.0	 0.96311	 8.5	 0	 7.5	 2.0	 0.0	 0.0	 0.0	 0.0	 0.0	 0.0	 0.0	 0.0	 0.0	 0.0	 0.0; % COW
	32604	 0.18	 0.0	 0.0	 0.0	 0.96311	 0.2	 0	 0.18	 0.0	 0.0	 0.0	 0.0	 0.0	 0.0	 0.0	 0.0	 0.0	 0.0	 0.0	 0.0; % NG
	33071	 0.0	 -0.019	 0.0	 -1.48	 0.95456	 4.0	 1	 4.5	 0.0	 0.0	 0.0	 0.0	 0.0	 0.0	 0.0	 0.0	 0.0	 0.0	 0.0	 0.0; % PEL
	33072	 0.0	 0.0	 0.0	 0.0	 0.93915	 9.35	 1	 9.35	 0.0	 0.0	 0.0	 0.0	 0.0	 0.0	 0.0	 0.0	 0.0	 0.0	 0.0	 0.0; % NG
	35071	 0.0	 -1.64	 -1.64	 -2.13	 0.85	 4.6	 1	 4.6	 0.0	 0.0	 0.0	 0.0	 0.0	 0.0	 0.0	 0.0	 0.0	 0.0	 0.0	 0.0; % NG
	35074	 70.0	 -20.019	 60.0	 -39.0	 0.85088	 121.1	 1	 103.3	 70.0	 0.0	 0.0	 0.0	 0.0	 0.0	 0.0	 0.0	 0.0	 0.0	 0.0	 0.0; % PEL
	35871	 0.0	 0.0	 0.0	 0.0	 0.92609	 2.55	 1	 2.55	 0.0	 0.0	 0.0	 0.0	 0.0	 0.0	 0.0	 0.0	 0.0	 0.0	 0.0	 0.0; % PEL
	35872	 0.0	 0.0	 0.0	 0.0	 0.92609	 2.55	 1	 2.45	 0.0	 0.0	 0.0	 0.0	 0.0	 0.0	 0.0	 0.0	 0.0	 0.0	 0.0	 0.0; % PEL
	35873	 0.0	 0.0	 0.0	 0.0	 0.92609	 3.2	 1	 3.2	 0.0	 0.0	 0.0	 0.0	 0.0	 0.0	 0.0	 0.0	 0.0	 0.0	 0.0	 0.0; % PEL
	35875	 0.0	 -6.0	 -6.0	 -6.0	 0.89455	 17.7	 1	 15.0	 0.0	 0.0	 0.0	 0.0	 0.0	 0.0	 0.0	 0.0	 0.0	 0.0	 0.0	 0.0; % PEL
	35876	 0.0	 -4.8	 -4.8	 -4.8	 0.90193	 11.88	 1	 11.88	 0.0	 0.0	 0.0	 0.0	 0.0	 0.0	 0.0	 0.0	 0.0	 0.0	 0.0	 0.0; % NG
	35877	 4.942	 0.0	 0.0	 0.0	 0.92151	 5.4	 1	 4.99	 0.0	 0.0	 0.0	 0.0	 0.0	 0.0	 0.0	 0.0	 0.0	 0.0	 0.0	 0.0; % NG
	36271	 12.937	 8.619	 12.0	 -12.0	 0.93883	 36.0	 1	 36.0	 0.0	 0.0	 0.0	 0.0	 0.0	 0.0	 0.0	 0.0	 0.0	 0.0	 0.0	 0.0; % NG
	36272	 0.0	 4.097	 7.5	 -75.0	 0.93589	 20.0	 1	 19.0	 0.0	 0.0	 0.0	 0.0	 0.0	 0.0	 0.0	 0.0	 0.0	 0.0	 0.0	 0.0; % PEL
	36471	 14.45	 0.0	 0.0	 0.0	 0.95528	 15.0	 1	 14.45	 0.0	 0.0	 0.0	 0.0	 0.0	 0.0	 0.0	 0.0	 0.0	 0.0	 0.0	 0.0; % COW
	36472	 0.0	 -1.31	 -1.31	 -1.7	 0.92194	 4.6	 1	 4.0	 0.0	 0.0	 0.0	 0.0	 0.0	 0.0	 0.0	 0.0	 0.0	 0.0	 0.0	 0.0; % NG
	36473	 0.0	 0.0	 0.0	 0.0	 0.94157	 4.6	 1	 4.6	 0.0	 0.0	 0.0	 0.0	 0.0	 0.0	 0.0	 0.0	 0.0	 0.0	 0.0	 0.0; % NG
	36474	 0.0	 -1.18	 -1.18	 -1.53	 0.91324	 4.0	 1	 3.6	 0.0	 0.0	 0.0	 0.0	 0.0	 0.0	 0.0	 0.0	 0.0	 0.0	 0.0	 0.0; % PEL
	36475	 4.0	 -1.2	 -1.2	 -1.2	 0.92883	 4.6	 1	 4.0	 0.0	 0.0	 0.0	 0.0	 0.0	 0.0	 0.0	 0.0	 0.0	 0.0	 0.0	 0.0; % NG
	36476	 0.0	 1.981	 4.0	 -4.0	 0.94744	 17.868	 1	 14.8	 0.0	 0.0	 0.0	 0.0	 0.0	 0.0	 0.0	 0.0	 0.0	 0.0	 0.0	 0.0; % NG
	38071	 0.0	 -0.56	 -0.56	 -0.56	 0.96145	 1.6	 1	 1.6	 0.0	 0.0	 0.0	 0.0	 0.0	 0.0	 0.0	 0.0	 0.0	 0.0	 0.0	 0.0; % PEL
	38244	 1.0	 0.0	 0.0	 0.0	 0.99892	 6.5	 0	 1.0	 0.0	 0.0	 0.0	 0.0	 0.0	 0.0	 0.0	 0.0	 0.0	 0.0	 0.0	 0.0; % PEL
	38271	 3.3	 0.0	 0.0	 0.0	 0.94434	 11.69	 1	 10.5	 0.0	 0.0	 0.0	 0.0	 0.0	 0.0	 0.0	 0.0	 0.0	 0.0	 0.0	 0.0; % NG
	38272	 0.0	 0.0	 0.0	 0.0	 0.94566	 5.01	 1	 4.5	 0.0	 0.0	 0.0	 0.0	 0.0	 0.0	 0.0	 0.0	 0.0	 0.0	 0.0	 0.0; % NG
	38273	 7.5	 0.0	 0.0	 0.0	 0.97053	 8.35	 1	 7.5	 0.0	 0.0	 0.0	 0.0	 0.0	 0.0	 0.0	 0.0	 0.0	 0.0	 0.0	 0.0; % NG
	38870	 0.0	 0.0	 0.0	 0.0	 0.97033	 25.3	 1	 25.3	 0.0	 0.0	 0.0	 0.0	 0.0	 0.0	 0.0	 0.0	 0.0	 0.0	 0.0	 0.0; % PEL
	38871	 8.75	 0.0	 0.0	 -2.88	 0.96985	 10.0	 1	 8.75	 0.0	 0.0	 0.0	 0.0	 0.0	 0.0	 0.0	 0.0	 0.0	 0.0	 0.0	 0.0; % NG
	39471	 99.0	 -39.09	 176.0	 -112.0	 0.85633	 359.0	 1	 302.0	 99.0	 0.0	 0.0	 0.0	 0.0	 0.0	 0.0	 0.0	 0.0	 0.0	 0.0	 0.0; % COW
	39472	 303.0	 14.169	 176.0	 -112.0	 0.87372	 359.0	 1	 303.0	 99.0	 0.0	 0.0	 0.0	 0.0	 0.0	 0.0	 0.0	 0.0	 0.0	 0.0	 0.0; % COW
	39473	 302.0	 14.54	 176.0	 -112.0	 0.87413	 359.0	 1	 302.0	 99.0	 0.0	 0.0	 0.0	 0.0	 0.0	 0.0	 0.0	 0.0	 0.0	 0.0	 0.0; % NG
	39675	 90.0	 0.0	 60.0	 -19.0	 0.93952	 100.9	 0	 90.0	 60.0	 0.0	 0.0	 0.0	 0.0	 0.0	 0.0	 0.0	 0.0	 0.0	 0.0	 0.0; % NG
	40471	 0.0	 0.0	 0.0	 0.0	 0.87488	 6.9	 1	 6.0	 0.0	 0.0	 0.0	 0.0	 0.0	 0.0	 0.0	 0.0	 0.0	 0.0	 0.0	 0.0; % PEL
	40771	 0.0	 0.0	 0.0	 0.0	 0.92641	 52.9	 1	 52.9	 0.0	 0.0	 0.0	 0.0	 0.0	 0.0	 0.0	 0.0	 0.0	 0.0	 0.0	 0.0; % NG
	40772	 0.0	 0.0	 0.0	 0.0	 0.92641	 19.5	 1	 18.06	 0.0	 0.0	 0.0	 0.0	 0.0	 0.0	 0.0	 0.0	 0.0	 0.0	 0.0	 0.0; % NG
	40773	 14.0	 0.0	 0.0	 0.0	 0.93199	 16.1	 1	 14.0	 0.0	 0.0	 0.0	 0.0	 0.0	 0.0	 0.0	 0.0	 0.0	 0.0	 0.0	 0.0; % NG
	42404	 15.0	 0.0	 5.0	 0.0	 0.98991	 20.0	 0	 15.0	 6.0	 0.0	 0.0	 0.0	 0.0	 0.0	 0.0	 0.0	 0.0	 0.0	 0.0	 0.0; % NG
	42404	 15.0	 0.0	 5.0	 0.0	 0.98991	 20.0	 0	 15.0	 6.0	 0.0	 0.0	 0.0	 0.0	 0.0	 0.0	 0.0	 0.0	 0.0	 0.0	 0.0; % COW
	42404	 15.0	 0.0	 5.0	 0.0	 0.98991	 20.0	 0	 15.0	 6.0	 0.0	 0.0	 0.0	 0.0	 0.0	 0.0	 0.0	 0.0	 0.0	 0.0	 0.0; % NG
	42474	 118.0	 0.0	 55.0	 -20.0	 0.97022	 132.1	 0	 118.0	 40.0	 0.0	 0.0	 0.0	 0.0	 0.0	 0.0	 0.0	 0.0	 0.0	 0.0	 0.0; % COW
	42475	 109.5	 0.0	 55.0	 -20.0	 0.99615	 132.1	 0	 109.5	 20.0	 0.0	 0.0	 0.0	 0.0	 0.0	 0.0	 0.0	 0.0	 0.0	 0.0	 0.0; % COW
	42672	 0.0	 -0.83	 -0.83	 -1.07	 0.90307	 2.55	 1	 2.44	 0.0	 0.0	 0.0	 0.0	 0.0	 0.0	 0.0	 0.0	 0.0	 0.0	 0.0	 0.0; % PEL
	42673	 3.9	 -1.3	 -1.3	 -1.3	 0.90814	 4.6	 1	 3.9	 0.0	 0.0	 0.0	 0.0	 0.0	 0.0	 0.0	 0.0	 0.0	 0.0	 0.0	 0.0; % NG
	42674	 0.0	 0.0	 0.0	 0.0	 0.92019	 2.55	 1	 2.55	 0.0	 0.0	 0.0	 0.0	 0.0	 0.0	 0.0	 0.0	 0.0	 0.0	 0.0	 0.0; % PEL
	43671	 0.0	 0.0	 0.0	 0.0	 0.9273	 6.9	 1	 6.9	 0.0	 0.0	 0.0	 0.0	 0.0	 0.0	 0.0	 0.0	 0.0	 0.0	 0.0	 0.0; % PEL
	43672	 0.0	 0.0	 0.0	 0.0	 0.9273	 2.3	 1	 2.3	 0.0	 0.0	 0.0	 0.0	 0.0	 0.0	 0.0	 0.0	 0.0	 0.0	 0.0	 0.0; % PEL
	43774	 0.0	 1.452	 10.0	 -10.0	 0.85254	 36.8	 1	 34.15	 0.0	 0.0	 0.0	 0.0	 0.0	 0.0	 0.0	 0.0	 0.0	 0.0	 0.0	 0.0; % PEL
	44471	 15.0	 0.0	 9.0	 -10.0	 0.91539	 18.8	 0	 15.0	 5.0	 0.0	 0.0	 0.0	 0.0	 0.0	 0.0	 0.0	 0.0	 0.0	 0.0	 0.0; % NG
	44471	 15.0	 0.0	 9.0	 -10.0	 0.91539	 18.8	 0	 15.0	 5.0	 0.0	 0.0	 0.0	 0.0	 0.0	 0.0	 0.0	 0.0	 0.0	 0.0	 0.0; % NG
	44471	 4.0	 0.0	 3.0	 -1.0	 0.91539	 5.0	 0	 4.0	 1.0	 0.0	 0.0	 0.0	 0.0	 0.0	 0.0	 0.0	 0.0	 0.0	 0.0	 0.0; % NG
	46801	 6.5	 0.0	 0.0	 0.0	 0.9546	 6.75	 0	 6.5	 2.0	 0.0	 0.0	 0.0	 0.0	 0.0	 0.0	 0.0	 0.0	 0.0	 0.0	 0.0; % NG
	46854	 3.2	 0.0	 0.0	 0.0	 0.94827	 3.2	 0	 3.2	 3.2	 0.0	 0.0	 0.0	 0.0	 0.0	 0.0	 0.0	 0.0	 0.0	 0.0	 0.0; % NG
	46870	 0.0	 -1.0	 -1.0	 -1.0	 0.89059	 4.6	 1	 2.5	 0.0	 0.0	 0.0	 0.0	 0.0	 0.0	 0.0	 0.0	 0.0	 0.0	 0.0	 0.0; % PEL
	46873	 0.0	 0.0	 0.0	 0.0	 0.89273	 15.0	 1	 12.5	 0.0	 0.0	 0.0	 0.0	 0.0	 0.0	 0.0	 0.0	 0.0	 0.0	 0.0	 0.0; % NG
	46874	 15.0	 -5.0	 -5.0	 -5.0	 0.87873	 17.868	 1	 15.0	 0.0	 0.0	 0.0	 0.0	 0.0	 0.0	 0.0	 0.0	 0.0	 0.0	 0.0	 0.0; % COW
	46875	 2.4	 0.0	 0.0	 0.0	 0.9546	 3.0	 0	 2.4	 0.0	 0.0	 0.0	 0.0	 0.0	 0.0	 0.0	 0.0	 0.0	 0.0	 0.0	 0.0; % PEL
	47871	 48.0	 -0.992	 16.0	 -16.0	 0.94233	 53.44	 1	 48.0	 0.0	 0.0	 0.0	 0.0	 0.0	 0.0	 0.0	 0.0	 0.0	 0.0	 0.0	 0.0; % NG
	47872	 0.0	 0.0	 0.0	 0.0	 0.94981	 28.39	 1	 30.6	 0.0	 0.0	 0.0	 0.0	 0.0	 0.0	 0.0	 0.0	 0.0	 0.0	 0.0	 0.0; % NG
	47873	 5.82	 0.0	 0.0	 0.0	 0.94327	 6.68	 1	 5.82	 0.0	 0.0	 0.0	 0.0	 0.0	 0.0	 0.0	 0.0	 0.0	 0.0	 0.0	 0.0; % COW
	49474	 55.0	 -7.11	 93.0	 -59.0	 0.85	 181.7	 1	 154.3	 55.0	 0.0	 0.0	 0.0	 0.0	 0.0	 0.0	 0.0	 0.0	 0.0	 0.0	 0.0; % NG
	49604	 0.7	 0.0	 0.0	 0.0	 0.98084	 1.0	 0	 0.7	 0.0	 0.0	 0.0	 0.0	 0.0	 0.0	 0.0	 0.0	 0.0	 0.0	 0.0	 0.0; % PEL
	49672	 3.0	 0.0	 0.0	 0.0	 0.93005	 3.34	 1	 3.0	 0.0	 0.0	 0.0	 0.0	 0.0	 0.0	 0.0	 0.0	 0.0	 0.0	 0.0	 0.0; % NG
	49971	 0.0	 0.0	 0.0	 0.0	 0.97717	 32.0	 1	 31.5	 0.0	 0.0	 0.0	 0.0	 0.0	 0.0	 0.0	 0.0	 0.0	 0.0	 0.0	 0.0; % PEL
	49973	 0.0	 1.4	 1.4	 -1.4	 0.9884	 6.9	 1	 6.9	 0.0	 0.0	 0.0	 0.0	 0.0	 0.0	 0.0	 0.0	 0.0	 0.0	 0.0	 0.0; % PEL
	49975	 0.0	 -1.38	 -1.38	 -1.79	 0.97166	 4.6	 1	 4.2	 0.0	 0.0	 0.0	 0.0	 0.0	 0.0	 0.0	 0.0	 0.0	 0.0	 0.0	 0.0; % PEL
	49976	 0.0	 2.0	 2.0	 -2.0	 1.00046	 9.2	 1	 9.2	 0.0	 0.0	 0.0	 0.0	 0.0	 0.0	 0.0	 0.0	 0.0	 0.0	 0.0	 0.0; % NG
	49980	 0.0	 0.0	 0.0	 0.0	 0.97928	 2.3	 1	 0.6	 0.0	 0.0	 0.0	 0.0	 0.0	 0.0	 0.0	 0.0	 0.0	 0.0	 0.0	 0.0; % PEL
	50071	 0.486	 0.0	 0.0	 0.0	 0.87502	 7.65	 1	 7.65	 0.0	 0.0	 0.0	 0.0	 0.0	 0.0	 0.0	 0.0	 0.0	 0.0	 0.0	 0.0; % NG
...
];

%% generator cost data
%	2	startup	shutdown	n	c(n-1)	...	c0
mpc.gencost = [
	2	 0.0	 0.0	 3	   0.000000	   1.575724	   0.000000; % NG
	2	 0.0	 0.0	 3	   0.000000	   0.904694	   0.000000; % NG
	2	 0.0	 0.0	 3	   0.000000	   0.922960	   0.000000; % NG
	2	 0.0	 0.0	 3	   0.000000	   1.017366	   0.000000; % NG
	2	 0.0	 0.0	 3	   0.000000	   1.179233	   0.000000; % NG
	2	 0.0	 0.0	 3	   0.000000	   6.758120	   0.000000; % PEL
	2	 0.0	 0.0	 3	   0.000000	   1.068702	   0.000000; % NG
	2	 0.0	 0.0	 3	   0.000000	   1.289449	   0.000000; % NG
	2	 0.0	 0.0	 3	   0.000000	   0.873016	   0.000000; % NG
	2	 0.0	 0.0	 3	   0.000000	   0.994466	   0.000000; % NG
	2	 0.0	 0.0	 3	   0.000000	   1.209761	   0.000000; % NG
	2	 0.0	 0.0	 3	   0.000000	   6.730639	   0.000000; % PEL
	2	 0.0	 0.0	 3	   0.000000	   0.591316	   0.000000; % NG
	2	 0.0	 0.0	 3	   0.000000	   6.605148	   0.000000; % PEL
	2	 0.0	 0.0	 3	   0.000000	   0.989531	   0.000000; % NG
	2	 0.0	 0.0	 3	   0.000000	   6.286101	   0.000000; % PEL
	2	 0.0	 0.0	 3	   0.000000	   0.815683	   0.000000; % COW
	2	 0.0	 0.0	 3	   0.000000	   1.564347	   0.000000; % NG
	2	 0.0	 0.0	 3	   0.000000	   0.894853	   0.000000; % NG
	2	 0.0	 0.0	 3	   0.000000	   0.706260	   0.000000; % COW
	2	 0.0	 0.0	 3	   0.000000	   7.169056	   0.000000; % PEL
	2	 0.0	 0.0	 3	   0.000000	   1.405515	   0.000000; % NG
	2	 0.0	 0.0	 3	   0.000000	   1.386822	   0.000000; % NG
	2	 0.0	 0.0	 3	   0.000000	   1.145897	   0.000000; % NG
	2	 0.0	 0.0	 3	   0.000000	   0.728825	   0.000000; % COW
	2	 0.0	 0.0	 3	   0.000000	   1.016804	   0.000000; % NG
	2	 0.0	 0.0	 3	   0.000000	   7.688657	   0.000000; % PEL
	2	 0.0	 0.0	 3	   0.000000	   6.532834	   0.000000; % PEL
	2	 0.0	 0.0	 3	   0.000000	   0.952029	   0.000000; % NG
	2	 0.0	 0.0	 3	   0.000000	   1.005856	   0.000000; % NG
	2	 0.0	 0.0	 3	   0.000000	   0.632403	   0.000000; % NG
	2	 0.0	 0.0	 3	   0.000000	   6.729344	   0.000000; % PEL
	2	 0.0	 0.0	 3	   0.000000	   6.485383	   0.000000; % PEL
	2	 0.0	 0.0	 3	   0.000000	   1.338710	   0.000000; % NG
	2	 0.0	 0.0	 3	   0.000000	   7.465790	   0.000000; % PEL
	2	 0.0	 0.0	 3	   0.000000	   0.901953	   0.000000; % NG
	2	 0.0	 0.0	 3	   0.000000	   0.930636	   0.000000; % NG
	2	 0.0	 0.0	 3	   0.000000	   6.828005	   0.000000; % PEL
	2	 0.0	 0.0	 3	   0.000000	   1.068754	   0.000000; % NG
	2	 0.0	 0.0	 3	   0.000000	   6.574354	   0.000000; % PEL
	2	 0.0	 0.0	 3	   0.000000	   1.396266	   0.000000; % NG
	2	 0.0	 0.0	 3	   0.000000	   0.812707	   0.000000; % NG
	2	 0.0	 0.0	 3	   0.000000	   6.886088	   0.000000; % PEL
	2	 0.0	 0.0	 3	   0.000000	   0.858615	   0.000000; % NG
	2	 0.0	 0.0	 3	   0.000000	   1.035044	   0.000000; % NG
	2	 0.0	 0.0	 3	   0.000000	   6.785288	   0.000000; % PEL
	2	 0.0	 0.0	 3	   0.000000	   6.792588	   0.000000; % PEL
	2	 0.0	 0.0	 3	   0.000000	   1.016037	   0.000000; % NG
	2	 0.0	 0.0	 3	   0.000000	   0.805362	   0.000000; % NG
	2	 0.0	 0.0	 3	   0.000000	   6.930461	   0.000000; % PEL
	2	 0.0	 0.0	 3	   0.000000	   0.886255	   0.000000; % NG
	2	 0.0	 0.0	 3	   0.000000	   1.120273	   0.000000; % NG
	2	 0.0	 0.0	 3	   0.000000	   6.997279	   0.000000; % PEL
	2	 0.0	 0.0	 3	   0.000000	   0.752290	   0.000000; % NG
	2	 0.0	 0.0	 3	   0.000000	   0.985562	   0.000000; % COW
	2	 0.0	 0.0	 3	   0.000000	   0.896113	   0.000000; % NG
	2	 0.0	 0.0	 3	   0.000000	   6.603091	   0.000000; % PEL
	2	 0.0	 0.0	 3	   0.000000	   0.683577	   0.000000; % COW
	2	 0.0	 0.0	 3	   0.000000	   7.156848	   0.000000; % PEL
	2	 0.0	 0.0	 3	   0.000000	   1.049306	   0.000000; % NG
	2	 0.0	 0.0	 3	   0.000000	   0.793175	   0.000000; % NG
	2	 0.0	 0.0	 3	   0.000000	   6.045560	   0.000000; % PEL
	2	 0.0	 0.0	 3	   0.000000	   7.104458	   0.000000; % PEL
	2	 0.0	 0.0	 3	   0.000000	   6.939543	   0.000000; % PEL
	2	 0.0	 0.0	 3	   0.000000	   6.493353	   0.000000; % PEL
	2	 0.0	 0.0	 3	   0.000000	   1.205574	   0.000000; % NG
	2	 0.0	 0.0	 3	   0.000000	   0.532626	   0.000000; % NG
	2	 0.0	 0.0	 3	   0.000000	   6.470270	   0.000000; % PEL
	2	 0.0	 0.0	 3	   0.000000	   0.000000	   0.000000; % SYNC
	2	 0.0	 0.0	 3	   0.000000	   6.953756	   0.000000; % PEL
	2	 0.0	 0.0	 3	   0.000000	   0.913791	   0.000000; % NG
	2	 0.0	 0.0	 3	   0.000000	   0.929165	   0.000000; % NG
	2	 0.0	 0.0	 3	   0.000000	   0.719653	   0.000000; % NG
	2	 0.0	 0.0	 3	   0.000000	   6.601570	   0.000000; % PEL
	2	 0.0	 0.0	 3	   0.000000	   6.932763	   0.000000; % PEL
	2	 0.0	 0.0	 3	   0.000000	   0.981173	   0.000000; % NG
	2	 0.0	 0.0	 3	   0.000000	   1.078377	   0.000000; % NG
	2	 0.0	 0.0	 3	   0.000000	   6.507997	   0.000000; % PEL
	2	 0.0	 0.0	 3	   0.000000	   1.271608	   0.000000; % NG
	2	 0.0	 0.0	 3	   0.000000	   1.179011	   0.000000; % NG
	2	 0.0	 0.0	 3	   0.000000	   6.409713	   0.000000; % PEL
	2	 0.0	 0.0	 3	   0.000000	   1.016042	   0.000000; % NG
	2	 0.0	 0.0	 3	   0.000000	   7.080544	   0.000000; % PEL
	2	 0.0	 0.0	 3	   0.000000	   1.333118	   0.000000; % NG
	2	 0.0	 0.0	 3	   0.000000	   6.676658	   0.000000; % PEL
	2	 0.0	 0.0	 3	   0.000000	   6.670131	   0.000000; % PEL
	2	 0.0	 0.0	 3	   0.000000	   1.084744	   0.000000; % NG
	2	 0.0	 0.0	 3	   0.000000	   7.527218	   0.000000; % PEL
	2	 0.0	 0.0	 3	   0.000000	   7.286972	   0.000000; % PEL
	2	 0.0	 0.0	 3	   0.000000	   6.590907	   0.000000; % PEL
	2	 0.0	 0.0	 3	   0.000000	   0.703933	   0.000000; % NG
	2	 0.0	 0.0	 3	   0.000000	   7.006550	   0.000000; % PEL
	2	 0.0	 0.0	 3	   0.000000	   1.237920	   0.000000; % NG
	2	 0.0	 0.0	 3	   0.000000	   6.594462	   0.000000; % PEL
	2	 0.0	 0.0	 3	   0.000000	   6.851699	   0.000000; % PEL
	2	 0.0	 0.0	 3	   0.000000	   1.047780	   0.000000; % NG
	2	 0.0	 0.0	 3	   0.000000	   6.117342	   0.000000; % PEL
	2	 0.0	 0.0	 3	   0.000000	   6.689625	   0.000000; % PEL
	2	 0.0	 0.0	 3	   0.000000	   0.971921	   0.000000; % NG
	2	 0.0	 0.0	 3	   0.000000	   6.847450	   0.000000; % PEL
	2	 0.0	 0.0	 3	   0.000000	   7.357556	   0.000000; % PEL
	2	 0.0	 0.0	 3	   0.000000	   0.862954	   0.000000; % NG
	2	 0.0	 0.0	 3	   0.000000	   6.830645	   0.000000; % PEL
	2	 0.0	 0.0	 3	   0.000000	   1.251508	   0.000000; % NG
	2	 0.0	 0.0	 3	   0.000000	   0.000000	   0.000000; % SYNC
	2	 0.0	 0.0	 3	   0.000000	   7.035041	   0.000000; % PEL
	2	 0.0	 0.0	 3	   0.000000	   1.572235	   0.000000; % NG
	2	 0.0	 0.0	 3	   0.000000	   7.179290	   0.000000; % PEL
	2	 0.0	 0.0	 3	   0.000000	   0.771972	   0.000000; % NG
	2	 0.0	 0.0	 3	   0.000000	   1.084235	   0.000000; % COW
	2	 0.0	 0.0	 3	   0.000000	   1.341484	   0.000000; % NG
	2	 0.0	 0.0	 3	   0.000000	   1.049245	   0.000000; % NG
	2	 0.0	 0.0	 3	   0.000000	   1.081074	   0.000000; % COW
	2	 0.0	 0.0	 3	   0.000000	   1.015123	   0.000000; % NG
	2	 0.0	 0.0	 3	   0.000000	   1.139418	   0.000000; % NG
	2	 0.0	 0.0	 3	   0.000000	   0.978401	   0.000000; % NG
	2	 0.0	 0.0	 3	   0.000000	   1.227512	   0.000000; % NG
	2	 0.0	 0.0	 3	   0.000000	   1.144684	   0.000000; % COW
	2	 0.0	 0.0	 3	   0.000000	   0.969296	   0.000000; % NG
	2	 0.0	 0.0	 3	   0.000000	   6.881122	   0.000000; % PEL
	2	 0.0	 0.0	 3	   0.000000	   0.972197	   0.000000; % NG
	2	 0.0	 0.0	 3	   0.000000	   0.369269	   0.000000; % COW
	2	 0.0	 0.0	 3	   0.000000	   0.616215	   0.000000; % NG
	2	 0.0	 0.0	 3	   0.000000	   0.668277	   0.000000; % COW
	2	 0.0	 0.0	 3	   0.000000	   0.336618	   0.000000; % NG
	2	 0.0	 0.0	 3	   0.000000	   1.225867	   0.000000; % NG
	2	 0.0	 0.0	 3	   0.000000	   6.906794	   0.000000; % PEL
	2	 0.0	 0.0	 3	   0.000000	   7.420694	   0.000000; % PEL
	2	 0.0	 0.0	 3	   0.000000	   0.552469	   0.000000; % COW
	2	 0.0	 0.0	 3	   0.000000	   1.033086	   0.000000; % NG
	2	 0.0	 0.0	 3	   0.000000	   0.845378	   0.000000; % COW
	2	 0.0	 0.0	 3	   0.000000	   6.717593	   0.000000; % PEL
	2	 0.0	 0.0	 3	   0.000000	   7.190525	   0.000000; % PEL
	2	 0.0	 0.0	 3	   0.000000	   0.541974	   0.000000; % COW
	2	 0.0	 0.0	 3	   0.000000	   1.165929	   0.000000; % NG
	2	 0.0	 0.0	 3	   0.000000	   7.113045	   0.000000; % PEL
	2	 0.0	 0.0	 3	   0.000000	   1.316044	   0.000000; % NG
	2	 0.0	 0.0	 3	   0.000000	   1.301182	   0.000000; % NG
	2	 0.0	 0.0	 3	   0.000000	   6.605434	   0.000000; % PEL
	2	 0.0	 0.0	 3	   0.000000	   6.713714	   0.000000; % PEL
	2	 0.0	 0.0	 3	   0.000000	   7.305921	   0.000000; % PEL
	2	 0.0	 0.0	 3	   0.000000	   6.909508	   0.000000; % PEL
	2	 0.0	 0.0	 3	   0.000000	   7.504124	   0.000000; % PEL
	2	 0.0	 0.0	 3	   0.000000	   1.481546	   0.000000; % NG
	2	 0.0	 0.0	 3	   0.000000	   0.975384	   0.000000; % NG
	2	 0.0	 0.0	 3	   0.000000	   1.133070	   0.000000; % NG
	2	 0.0	 0.0	 3	   0.000000	   7.185307	   0.000000; % PEL
	2	 0.0	 0.0	 3	   0.000000	   0.767112	   0.000000; % COW
	2	 0.0	 0.0	 3	   0.000000	   1.382261	   0.000000; % NG
	2	 0.0	 0.0	 3	   0.000000	   1.289510	   0.000000; % NG
	2	 0.0	 0.0	 3	   0.000000	   6.573584	   0.000000; % PEL
	2	 0.0	 0.0	 3	   0.000000	   0.947743	   0.000000; % NG
	2	 0.0	 0.0	 3	   0.000000	   1.154917	   0.000000; % NG
	2	 0.0	 0.0	 3	   0.000000	   6.631416	   0.000000; % PEL
	2	 0.0	 0.0	 3	   0.000000	   6.919867	   0.000000; % PEL
	2	 0.0	 0.0	 3	   0.000000	   0.989365	   0.000000; % NG
	2	 0.0	 0.0	 3	   0.000000	   1.069045	   0.000000; % NG
	2	 0.0	 0.0	 3	   0.000000	   0.881855	   0.000000; % NG
	2	 0.0	 0.0	 3	   0.000000	   6.903326	   0.000000; % PEL
	2	 0.0	 0.0	 3	   0.000000	   0.862912	   0.000000; % NG
	2	 0.0	 0.0	 3	   0.000000	   1.073572	   0.000000; % COW
	2	 0.0	 0.0	 3	   0.000000	   0.628830	   0.000000; % COW
	2	 0.0	 0.0	 3	   0.000000	   0.971081	   0.000000; % NG
	2	 0.0	 0.0	 3	   0.000000	   0.878633	   0.000000; % NG
	2	 0.0	 0.0	 3	   0.000000	   7.167295	   0.000000; % PEL
	2	 0.0	 0.0	 3	   0.000000	   1.148894	   0.000000; % NG
	2	 0.0	 0.0	 3	   0.000000	   1.125384	   0.000000; % NG
	2	 0.0	 0.0	 3	   0.000000	   1.012718	   0.000000; % NG
	2	 0.0	 0.0	 3	   0.000000	   1.539499	   0.000000; % NG
	2	 0.0	 0.0	 3	   0.000000	   0.848079	   0.000000; % COW
	2	 0.0	 0.0	 3	   0.000000	   0.792523	   0.000000; % NG
	2	 0.0	 0.0	 3	   0.000000	   0.591070	   0.000000; % COW
	2	 0.0	 0.0	 3	   0.000000	   1.075217	   0.000000; % COW
	2	 0.0	 0.0	 3	   0.000000	   6.683000	   0.000000; % PEL
	2	 0.0	 0.0	 3	   0.000000	   1.035805	   0.000000; % NG
	2	 0.0	 0.0	 3	   0.000000	   6.737763	   0.000000; % PEL
	2	 0.0	 0.0	 3	   0.000000	   6.927777	   0.000000; % PEL
	2	 0.0	 0.0	 3	   0.000000	   6.402984	   0.000000; % PEL
	2	 0.0	 0.0	 3	   0.000000	   6.657171	   0.000000; % PEL
	2	 0.0	 0.0	 3	   0.000000	   1.230609	   0.000000; % NG
	2	 0.0	 0.0	 3	   0.000000	   1.325811	   0.000000; % NG
	2	 0.0	 0.0	 3	   0.000000	   1.078484	   0.000000; % NG
	2	 0.0	 0.0	 3	   0.000000	   1.036954	   0.000000; % NG
	2	 0.0	 0.0	 3	   0.000000	   1.024634	   0.000000; % NG
	2	 0.0	 0.0	 3	   0.000000	   6.832956	   0.000000; % PEL
	2	 0.0	 0.0	 3	   0.000000	   1.242624	   0.000000; % NG
	2	 0.0	 0.0	 3	   0.000000	   0.827449	   0.000000; % COW
	2	 0.0	 0.0	 3	   0.000000	   6.761910	   0.000000; % PEL
	2	 0.0	 0.0	 3	   0.000000	   1.019282	   0.000000; % NG
	2	 0.0	 0.0	 3	   0.000000	   1.073216	   0.000000; % NG
	2	 0.0	 0.0	 3	   0.000000	   0.800209	   0.000000; % COW
	2	 0.0	 0.0	 3	   0.000000	   1.366065	   0.000000; % NG
	2	 0.0	 0.0	 3	   0.000000	   7.210805	   0.000000; % PEL
	2	 0.0	 0.0	 3	   0.000000	   0.920921	   0.000000; % NG
	2	 0.0	 0.0	 3	   0.000000	   7.437834	   0.000000; % PEL
	2	 0.0	 0.0	 3	   0.000000	   7.404369	   0.000000; % PEL
	2	 0.0	 0.0	 3	   0.000000	   6.575978	   0.000000; % PEL
	2	 0.0	 0.0	 3	   0.000000	   1.288649	   0.000000; % NG
	2	 0.0	 0.0	 3	   0.000000	   7.014986	   0.000000; % PEL
	2	 0.0	 0.0	 3	   0.000000	   1.056738	   0.000000; % NG
...
];

%% branch data
%	fbus	tbus	r	x	b	rateA	rateB	rateC	ratio	angle	status	angmin	angmax
mpc.branch = [
	11	 42404	 0.0036	 0.00391	 0.00207	 100.0	 100.0	 110.0	 0.0	 0.0	 1	 -30.0	 30.0;
	12	 25404	 0.00534	 0.00795	 0.00407	 3605	 3605	 3605	 0.0	 0.0	 1	 -30.0	 30.0;
	12	 25404	 0.00594	 0.00866	 0.00435	 3288	 3288	 3288	 0.0	 0.0	 1	 -30.0	 30.0;
	12	 46504	 0.02132	 0.02114	 0.00329	 1150	 1150	 1150	 0.0	 0.0	 1	 -30.0	 30.0;
	12	 46504	 0.01937	 0.01703	 0.00256	 1339	 1339	 1339	 0.0	 0.0	 1	 -30.0	 30.0;
	1021	 2121	 0.0286	 0.067	 0.0059	 105.0	 105.0	 115.5	 0.0	 0.0	 1	 -30.0	 30.0;
	1021	 2361	 0.0513	 0.1172	 0.0106	 105.0	 105.0	 115.5	 0.0	 0.0	 1	 -30.0	 30.0;
	1021	 3541	 0.0071	 0.037	 0.0116	 99.0	 99.0	 108.9	 0.0	 0.0	 1	 -30.0	 30.0;
	1021	 10210	 0.0	 0.0001	 0.0	 999.0	 999.0	 1098.9	 0.0	 0.0	 1	 -30.0	 30.0;
	1021	 10261	 0.0	 0.0001	 0.0	 105.0	 105.0	 115.5	 0.0	 0.0	 1	 -30.0	 30.0;
	1041	 5481	 0.0049	 0.0107	 0.001	 105.0	 105.0	 115.5	 0.0	 0.0	 1	 -30.0	 30.0;
	1042	 1052	 0.0	 0.0001	 0.0	 9999.0	 9999.0	 10998.9	 0.0	 0.0	 0	 -30.0	 30.0;
	1042	 1062	 0.0	 0.0001	 0.0	 593.0	 593.0	 652.3	 0.0	 0.0	 1	 -30.0	 30.0;
	1042	 1072	 0.0001	 0.0006	 0.0384	 593.0	 593.0	 652.3	 0.0	 0.0	 1	 -30.0	 30.0;
	1042	 3202	 0.003	 0.0222	 0.0335	 434.0	 434.0	 477.4	 0.0	 0.0	 1	 -30.0	 30.0;
	1042	 4722	 0.0012	 0.0078	 0.2591	 434.0	 434.0	 477.4	 0.0	 0.0	 1	 -30.0	 30.0;
	1042	 35771	 0.0001	 0.0004	 0.0265	 593.0	 593.0	 652.3	 0.0	 0.0	 1	 -30.0	 30.0;
	1052	 1062	 0.0	 0.0001	 0.0	 999.0	 999.0	 1098.9	 0.0	 0.0	 0	 -30.0	 30.0;
	1052	 2852	 0.0002	 0.0015	 0.1035	 593.0	 593.0	 652.3	 0.0	 0.0	 1	 -30.0	 30.0;
	1052	 3202	 0.003	 0.0222	 0.0335	 434.0	 434.0	 477.4	 0.0	 0.0	 1	 -30.0	 30.0;
	1061	 10619	 0.0004	 0.0008	 0.0001	 105.0	 105.0	 115.5	 0.0	 0.0	 1	 -30.0	 30.0;
	1062	 1072	 0.0	 0.0001	 0.0	 999.0	 999.0	 1098.9	 0.0	 0.0	 0	 -30.0	 30.0;
	1071	 2231	 0.0125	 0.0276	 0.0026	 105.0	 105.0	 115.5	 0.0	 0.0	 1	 -30.0	 30.0;
	1071	 2361	 0.0594	 0.1314	 0.0123	 105.0	 105.0	 115.5	 0.0	 0.0	 1	 -30.0	 30.0;
	1071	 4941	 0.0718	 0.1589	 0.0148	 105.0	 105.0	 115.5	 0.0	 0.0	 1	 -30.0	 30.0;
	1081	 32810	 0.0039	 0.0123	 0.0035	 68.0	 112.0	 123.2	 0.0	 0.0	 1	 -30.0	 30.0;
	1101	 2161	 0.0031	 0.0069	 0.0006	 45.0	 105.0	 115.5	 0.0	 0.0	 1	 -30.0	 30.0;
	1121	 1301	 0.0102	 0.0787	 0.0071	 136.0	 136.0	 149.6	 0.0	 0.0	 1	 -30.0	 30.0;
	1121	 1541	 0.0207	 0.0952	 0.0102	 137.0	 178.0	 195.8	 0.0	 0.0	 1	 -30.0	 30.0;
	1121	 4901	 0.0035	 0.0077	 0.0008	 34.0	 34.0	 37.4	 0.0	 0.0	 1	 -30.0	 30.0;
	1122	 1742	 0.0062	 0.0462	 0.0697	 434.0	 434.0	 477.4	 0.0	 0.0	 1	 -30.0	 30.0;
	1122	 3642	 0.0046	 0.0338	 0.051	 434.0	 434.0	 477.4	 0.0	 0.0	 1	 -30.0	 30.0;
	1141	 3501	 0.054	 0.123	 0.0116	 105.0	 105.0	 115.5	 0.0	 0.0	 1	 -30.0	 30.0;
	1141	 4941	 0.0135	 0.0696	 0.0113	 137.0	 178.0	 195.8	 0.0	 0.0	 1	 -30.0	 30.0;
	1141	 11461	 0.0	 0.0001	 0.0	 105.0	 105.0	 115.5	 0.0	 0.0	 1	 -30.0	 30.0;
	1161	 1781	 0.001	 0.002	 0.0011	 96.0	 96.0	 105.6	 0.0	 0.0	 1	 -30.0	 30.0;
	1161	 3901	 0.0173	 0.0894	 0.0097	 178.0	 178.0	 195.8	 0.0	 0.0	 1	 -30.0	 30.0;
	1161	 5051	 0.0006	 0.0012	 0.0061	 120.0	 120.0	 132.0	 0.0	 0.0	 1	 -30.0	 30.0;
	1161	 5071	 0.0006	 0.0012	 0.0061	 120.0	 120.0	 132.0	 0.0	 0.0	 1	 -30.0	 30.0;
	1161	 17810	 0.001	 0.0021	 0.0012	 96.0	 96.0	 105.6	 0.0	 0.0	 1	 -30.0	 30.0;
	1161	 51410	 0.0214	 0.1105	 0.012	 178.0	 178.0	 195.8	 0.0	 0.0	 1	 -30.0	 30.0;
	1181	 1861	 0.0644	 0.1424	 0.0133	 105.0	 105.0	 115.5	 0.0	 0.0	 1	 -30.0	 30.0;
	1181	 2821	 0.0193	 0.0994	 0.0108	 178.0	 178.0	 195.8	 0.0	 0.0	 1	 -30.0	 30.0;
	1181	 4221	 0.0381	 0.1969	 0.0214	 120.0	 120.0	 132.0	 0.0	 0.0	 1	 -30.0	 30.0;
	1181	 4961	 0.0292	 0.0645	 0.006	 80.0	 80.0	 88.0	 0.0	 0.0	 1	 -30.0	 30.0;
	1181	 4961	 0.0148	 0.0763	 0.0097	 178.0	 178.0	 195.8	 0.0	 0.0	 1	 -30.0	 30.0;
	1201	 2561	 0.0047	 0.0101	 0.0548	 120.0	 120.0	 132.0	 0.0	 0.0	 1	 -30.0	 30.0;
	1201	 3781	 0.0026	 0.0055	 0.0298	 120.0	 120.0	 132.0	 0.0	 0.0	 1	 -30.0	 30.0;
	1221	 1901	 0.0389	 0.086	 0.008	 105.0	 105.0	 115.5	 0.0	 0.0	 1	 -30.0	 30.0;
	1221	 4481	 0.0414	 0.0915	 0.0086	 105.0	 105.0	 115.5	 0.0	 0.0	 1	 -30.0	 30.0;
	1231	 1841	 0.0111	 0.03	 0.1366	 68.0	 116.0	 127.6	 0.0	 0.0	 1	 -30.0	 30.0;
	1251	 2361	 0.0373	 0.0826	 0.0077	 105.0	 105.0	 115.5	 0.0	 0.0	 1	 -30.0	 30.0;
	1251	 52219	 0.0305	 0.0674	 0.0063	 105.0	 105.0	 115.5	 0.0	 0.0	 1	 -30.0	 30.0;
	1271	 2041	 0.0106	 0.0546	 0.006	 178.0	 178.0	 195.8	 0.0	 0.0	 1	 -30.0	 30.0;
	1271	 2181	 0.0126	 0.065	 0.0071	 178.0	 178.0	 195.8	 0.0	 0.0	 1	 -30.0	 30.0;
	1281	 2221	 0.0426	 0.0943	 0.0098	 68.0	 105.0	 115.5	 0.0	 0.0	 1	 -30.0	 30.0;
...